data/Network_05R-10/scenario_7/case.raw
 0,    100, 33, 0, 0, 60.0 / Header line 1
Header line 2
Header line 3
  1001,'',   115, 1, 1, 1, 1, 0.99862622, 2.4978668, 1.1, 0.9, 1.1, 0.9
  1002,'',   115, 1, 1, 1, 1, 1.0463115, 4.378187, 1.1, 0.9, 1.1, 0.9
  1003,'',   115, 1, 1, 1, 1, 1.0167456, 19.95624, 1.1, 0.9, 1.1, 0.9
  1004,'',   230, 2, 1, 1, 1, 1.0201691, 20.36055, 1.1, 0.9, 1.1, 0.9
  1005,'',   115, 1, 1, 1, 1, 1.0080607, 25.231629, 1.1, 0.9, 1.1, 0.9
  1006,'',  13.8, 2, 1, 1, 1, 1.0052872, 28.059931, 1.1, 0.9, 1.1, 0.9
  1007,'',   115, 1, 1, 1, 1, 1.0493563, 4.3247666, 1.1, 0.9, 1.1, 0.9
  1008,'',   115, 1, 1, 1, 1, 1.0200013, 15.185848, 1.1, 0.9, 1.1, 0.9
  1009,'',  13.8, 2, 1, 1, 1, 1.0095095, 16.148754, 1.1, 0.9, 1.1, 0.9
  1010,'',   115, 1, 1, 1, 1, 1.049697, 5.2231178, 1.1, 0.9, 1.1, 0.9
  1011,'',    22, 2, 1, 1, 1, 1.049697, 5.2231178, 1.1, 0.9, 1.1, 0.9
  1012,'',   115, 1, 1, 1, 1, 1.0225449, 2.6659368, 1.1, 0.9, 1.1, 0.9
  1013,'',   115, 1, 1, 1, 1, 1.0122845, 7.0993854, 1.1, 0.9, 1.1, 0.9
  1014,'',   115, 1, 1, 1, 1, 1.0133369, 9.9703319, 1.1, 0.9, 1.1, 0.9
  1015,'',   115, 1, 1, 1, 1, 1.0533411, 4.3420519, 1.1, 0.9, 1.1, 0.9
  1016,'',   115, 1, 1, 1, 1, 1.015, 23.528916, 1.1, 0.9, 1.1, 0.9
  1017,'',   115, 1, 1, 1, 1, 1.0005073, 5.0404763, 1.1, 0.9, 1.1, 0.9
  1018,'',   115, 1, 1, 1, 1, 1.0059046, 6.8856912, 1.1, 0.9, 1.1, 0.9
  1019,'',   115, 1, 1, 1, 1, 1.015, 4.0979295, 1.1, 0.9, 1.1, 0.9
  1020,'',   115, 1, 1, 1, 1, 1.0165883, 24.142309, 1.1, 0.9, 1.1, 0.9
  1021,'',  13.8, 2, 1, 1, 1, 1, 32.960599, 1.1, 0.9, 1.1, 0.9
  1022,'',   115, 1, 1, 1, 1, 1.0178862, 20.526057, 1.1, 0.9, 1.1, 0.9
  1023,'',  13.8, 2, 1, 1, 1, 1.01, 23.525519, 1.1, 0.9, 1.1, 0.9
  1024,'',   115, 1, 1, 1, 1, 1.004542, 8.3529726, 1.1, 0.9, 1.1, 0.9
  1025,'',   115, 1, 1, 1, 1, 1.0185026, 26.146538, 1.1, 0.9, 1.1, 0.9
  1026,'',  13.8, 2, 1, 1, 1, 1.03, 38.402786, 1.1, 0.9, 1.1, 0.9
  1027,'',   115, 1, 1, 1, 1, 1, 5.3511049, 1.1, 0.9, 1.1, 0.9
  1028,'',   115, 1, 1, 1, 1, 1.0191683, 20.628211, 1.1, 0.9, 1.1, 0.9
  1029,'',   115, 1, 1, 1, 1, 1.015, 5.8630215, 1.1, 0.9, 1.1, 0.9
  1030,'',   115, 1, 1, 1, 1, 1.0248146, 8.8819925, 1.1, 0.9, 1.1, 0.9
  1031,'',   115, 1, 1, 1, 1, 1.0319716, 5.1880917, 1.1, 0.9, 1.1, 0.9
  1032,'',   115, 1, 1, 1, 1, 1.0011319, 12.09819, 1.1, 0.9, 1.1, 0.9
  1033,'',   230, 2, 1, 1, 1, 1.0135875, 7.1136473, 1.1, 0.9, 1.1, 0.9
  1034,'',   115, 1, 1, 1, 1, 1.0055019, 26.302512, 1.1, 0.9, 1.1, 0.9
  1035,'',  13.8, 2, 1, 1, 1, 1, 30.663588, 1.1, 0.9, 1.1, 0.9
  1036,'',   115, 1, 1, 1, 1, 0.99610582, 15.837971, 1.1, 0.9, 1.1, 0.9
  1037,'',   115, 1, 1, 1, 1, 0.99737354, 3.5925028, 1.1, 0.9, 1.1, 0.9
  1038,'',   115, 1, 1, 1, 1, 1.0126478, 13.907212, 1.1, 0.9, 1.1, 0.9
  1039,'',    22, 2, 1, 1, 1, 1, 15.071535, 1.1, 0.9, 1.1, 0.9
  1040,'',   115, 1, 1, 1, 1, 1.0054422, 7.08608, 1.1, 0.9, 1.1, 0.9
  1041,'',   115, 1, 1, 1, 1, 1.0035303, 25.153229, 1.1, 0.9, 1.1, 0.9
  1042,'',  13.8, 2, 1, 1, 1, 1.0035303, 25.153229, 1.1, 0.9, 1.1, 0.9
  1043,'',  13.8, 2, 1, 1, 1, 1.0183368, 29.370245, 1.1, 0.9, 1.1, 0.9
  1044,'',   115, 1, 1, 1, 1, 1.0110044, 11.682127, 1.1, 0.9, 1.1, 0.9
  1045,'',   115, 1, 1, 1, 1, 0.99504819, 2.8398076, 1.1, 0.9, 1.1, 0.9
  1046,'',   115, 1, 1, 1, 1, 1.0239437, 7.6078449, 1.1, 0.9, 1.1, 0.9
  1047,'',   115, 1, 1, 1, 1, 1.0097369, 8.4475771, 1.1, 0.9, 1.1, 0.9
  1048,'',    18, 2, 1, 1, 1, 1.0097369, 8.4475771, 1.1, 0.9, 1.1, 0.9
  1049,'',    18, 2, 1, 1, 1, 1.0097369, 8.4475771, 1.1, 0.9, 1.1, 0.9
  1050,'',    18, 2, 1, 1, 1, 1.0016458, 9.9899264, 1.1, 0.9, 1.1, 0.9
  1051,'',    18, 2, 1, 1, 1, 1, 10.44815, 1.1, 0.9, 1.1, 0.9
  1052,'',    18, 2, 1, 1, 1, 1.0035814, 9.7313326, 1.1, 0.9, 1.1, 0.9
  1053,'',   230, 2, 1, 1, 1, 1.0185271, 7.3464471, 1.1, 0.9, 1.1, 0.9
  1054,'',   115, 1, 1, 1, 1, 1.0020099, 11.505047, 1.1, 0.9, 1.1, 0.9
  1055,'',   115, 1, 1, 1, 1, 1.009515, 18.744587, 1.1, 0.9, 1.1, 0.9
  1056,'',   115, 1, 1, 1, 1, 1.015, 10.708259, 1.1, 0.9, 1.1, 0.9
  1057,'',    18, 2, 1, 1, 1, 1.015, 10.708259, 1.1, 0.9, 1.1, 0.9
  1058,'',   115, 1, 1, 1, 1, 1.0253225, 14.062636, 1.1, 0.9, 1.1, 0.9
  1059,'',    22, 2, 1, 1, 1, 1.0253225, 14.062636, 1.1, 0.9, 1.1, 0.9
  1060,'',    22, 2, 1, 1, 1, 1.0253225, 14.062636, 1.1, 0.9, 1.1, 0.9
  1061,'',   115, 1, 1, 1, 1, 1.0070494, 24.607504, 1.1, 0.9, 1.1, 0.9
  1062,'',  13.8, 2, 1, 1, 1, 1.0070494, 24.607504, 1.1, 0.9, 1.1, 0.9
  1063,'',  13.8, 2, 1, 1, 1, 1.0070494, 24.607504, 1.1, 0.9, 1.1, 0.9
  1064,'',   115, 1, 1, 1, 1, 0.99289389, 2.0103345, 1.1, 0.9, 1.1, 0.9
  1065,'',   115, 1, 1, 1, 1, 1.0019775, 24.585139, 1.1, 0.9, 1.1, 0.9
  1066,'',  13.8, 2, 1, 1, 1, 1, 34.529167, 1.1, 0.9, 1.1, 0.9
  1067,'',   115, 1, 1, 1, 1, 1.001465, 25.040285, 1.1, 0.9, 1.1, 0.9
  1068,'',   115, 1, 1, 1, 1, 0.99275438, 20.046777, 1.1, 0.9, 1.1, 0.9
  1069,'',   115, 1, 1, 1, 1, 1.0261543, 15.771487, 1.1, 0.9, 1.1, 0.9
  1070,'',  13.8, 2, 1, 1, 1, 1.04, 21.089572, 1.1, 0.9, 1.1, 0.9
  1071,'',   115, 1, 1, 1, 1, 1.0095263, 3.4752774, 1.1, 0.9, 1.1, 0.9
  1072,'',    18, 2, 1, 1, 1, 1.01, 6.2810273, 1.1, 0.9, 1.1, 0.9
  1073,'',    18, 2, 1, 1, 1, 1.01, 8.1457061, 1.1, 0.9, 1.1, 0.9
  1074,'',    18, 2, 1, 1, 1, 1.01, 7.5569149, 1.1, 0.9, 1.1, 0.9
  1075,'',    18, 2, 1, 1, 1, 1.01, 6.7405896, 1.1, 0.9, 1.1, 0.9
  1076,'',    18, 2, 1, 1, 1, 1.0095263, 3.4752774, 1.1, 0.9, 1.1, 0.9
  1077,'',    18, 2, 1, 1, 1, 1.0095263, 3.4752774, 1.1, 0.9, 1.1, 0.9
  1078,'',    18, 2, 1, 1, 1, 1.01, 6.5824845, 1.1, 0.9, 1.1, 0.9
  1079,'',   500, 2, 1, 1, 1, 1.0470364, -4.9785168, 1.1, 0.9, 1.1, 0.9
  1080,'',    18, 2, 1, 1, 1, 1.01, 6.7703545, 1.1, 0.9, 1.1, 0.9
  1081,'',   230, 2, 1, 1, 1, 1.0202081, 6.9670263, 1.1, 0.9, 1.1, 0.9
  1082,'',   115, 2, 1, 1, 1, 1.0177084, 16.438527, 1.1, 0.9, 1.1, 0.9
  1083,'',   115, 1, 1, 1, 1, 1.015, 12.053166, 1.1, 0.9, 1.1, 0.9
  1084,'',   115, 2, 1, 1, 1, 1.019014, 20.813717, 1.1, 0.9, 1.1, 0.9
  1085,'',   115, 1, 1, 1, 1, 1.012364, 8.3888968, 1.1, 0.9, 1.1, 0.9
  1086,'',   115, 1, 1, 1, 1, 1.015, 6.3524661, 1.1, 0.9, 1.1, 0.9
  1087,'',   115, 1, 1, 1, 1, 1.0269833, 10.718877, 1.1, 0.9, 1.1, 0.9
  1088,'',   115, 2, 1, 1, 1, 1, 20.250885, 1.1, 0.9, 1.1, 0.9
  1089,'',   115, 1, 1, 1, 1, 0.99069327, 14.9457, 1.1, 0.9, 1.1, 0.9
  1090,'',   115, 2, 1, 1, 1, 1.02, 11.250741, 1.1, 0.9, 1.1, 0.9
  1091,'',   161, 1, 1, 1, 1, 1.0247519, 12.217041, 1.1, 0.9, 1.1, 0.9
  2001,'',   161, 1, 1, 1, 1, 1.0266888, -23.521427, 1.1, 0.9, 1.1, 0.9
  2002,'',   500, 1, 1, 1, 1, 1.0289375, -23.246762, 1.1, 0.9, 1.1, 0.9
  2003,'',   161, 1, 1, 1, 1, 1.0244994, -24.417635, 1.1, 0.9, 1.1, 0.9
  2004,'',  13.8, 2, 1, 1, 1, 1.0289375, -23.246762, 1.1, 0.9, 1.1, 0.9
  2005,'',  13.8, 2, 1, 1, 1, 1.0289375, -23.246762, 1.1, 0.9, 1.1, 0.9
  2006,'',  13.8, 2, 1, 1, 1, 1.0289375, -23.246762, 1.1, 0.9, 1.1, 0.9
  2007,'',   161, 1, 1, 1, 1, 1.0256739, -23.292977, 1.1, 0.9, 1.1, 0.9
  2008,'',   161, 1, 1, 1, 1, 1.026781, 12.116597, 1.1, 0.9, 1.1, 0.9
  2009,'',   161, 1, 1, 1, 1, 1.0226662, -5.9188866, 1.1, 0.9, 1.1, 0.9
  2010,'',   161, 1, 1, 1, 1, 1.0262124, 6.6650609, 1.1, 0.9, 1.1, 0.9
  2011,'',   500, 1, 1, 1, 1, 1.0400991, 11.190446, 1.1, 0.9, 1.1, 0.9
  2012,'',   161, 1, 1, 1, 1, 1.0277781, 14.458885, 1.1, 0.9, 1.1, 0.9
  2013,'',    18, 2, 1, 1, 1, 1.0324661, 14.293644, 1.1, 0.9, 1.1, 0.9
  2014,'',   161, 1, 1, 1, 1, 1.0264147, 11.470676, 1.1, 0.9, 1.1, 0.9
  2015,'',   161, 1, 1, 1, 1, 1.0104968, -20.260868, 1.1, 0.9, 1.1, 0.9
  2016,'',   161, 1, 1, 1, 1, 1.0079332, -27.179855, 1.1, 0.9, 1.1, 0.9
  2017,'',   500, 1, 1, 1, 1, 1.025541, 10.372753, 1.1, 0.9, 1.1, 0.9
  2018,'',   161, 1, 1, 1, 1, 1.0229758, 11.747148, 1.1, 0.9, 1.1, 0.9
  2019,'',    20, 2, 1, 1, 1, 1.025541, 10.372753, 1.1, 0.9, 1.1, 0.9
  2020,'',   161, 1, 1, 1, 1, 1.014749, -7.1970139, 1.1, 0.9, 1.1, 0.9
  2021,'',   500, 1, 1, 1, 1, 1.0299496, -21.863327, 1.1, 0.9, 1.1, 0.9
  2022,'',   161, 1, 1, 1, 1, 1.0299024, -22.798484, 1.1, 0.9, 1.1, 0.9
  2023,'',  13.8, 2, 1, 1, 1, 1.0270244, -21.394407, 1.1, 0.9, 1.1, 0.9
  2024,'',  13.8, 2, 1, 1, 1, 1.0257275, -21.194979, 1.1, 0.9, 1.1, 0.9
  2025,'',   161, 1, 1, 1, 1, 1.0148662, -6.5717424, 1.1, 0.9, 1.1, 0.9
  2026,'',   161, 1, 1, 1, 1, 1.027769, 13.057966, 1.1, 0.9, 1.1, 0.9
  2027,'',   161, 1, 1, 1, 1, 1.0282825, -23.711911, 1.1, 0.9, 1.1, 0.9
  2028,'',   161, 1, 1, 1, 1, 1.012577, -8.4694648, 1.1, 0.9, 1.1, 0.9
  2029,'',   161, 1, 1, 1, 1, 1.0286944, 11.610817, 1.1, 0.9, 1.1, 0.9
  2030,'',   161, 1, 1, 1, 1, 1.0172139, -25.011833, 1.1, 0.9, 1.1, 0.9
  2031,'',   161, 1, 1, 1, 1, 1.0275, 12.716741, 1.1, 0.9, 1.1, 0.9
  2032,'',   161, 1, 1, 1, 1, 1.0267921, -23.029563, 1.1, 0.9, 1.1, 0.9
  2033,'',   161, 1, 1, 1, 1, 1.0181035, -25.430307, 1.1, 0.9, 1.1, 0.9
  2034,'',   161, 1, 1, 1, 1, 1.0082537, -27.017571, 1.1, 0.9, 1.1, 0.9
  2035,'',   161, 1, 1, 1, 1, 1.0252036, 11.597606, 1.1, 0.9, 1.1, 0.9
  2036,'',   161, 1, 1, 1, 1, 1.0159526, -6.7334042, 1.1, 0.9, 1.1, 0.9
  2037,'',   161, 1, 1, 1, 1, 1.0122372, -20.481389, 1.1, 0.9, 1.1, 0.9
  2038,'',   161, 1, 1, 1, 1, 1.0234149, -24.657374, 1.1, 0.9, 1.1, 0.9
  2039,'',   161, 1, 1, 1, 1, 1.0102444, -18.817227, 1.1, 0.9, 1.1, 0.9
  2040,'',   161, 1, 1, 1, 1, 1.0305119, -23.192239, 1.1, 0.9, 1.1, 0.9
  2041,'',   161, 1, 1, 1, 1, 1.0308196, 17.348124, 1.1, 0.9, 1.1, 0.9
  2042,'',    18, 2, 1, 1, 1, 1.0228055, 20.756152, 1.1, 0.9, 1.1, 0.9
  2043,'',   161, 1, 1, 1, 1, 1.0080908, -27.101293, 1.1, 0.9, 1.1, 0.9
  2044,'',   161, 1, 1, 1, 1, 1.0144089, -23.183416, 1.1, 0.9, 1.1, 0.9
  2045,'',   161, 1, 1, 1, 1, 1.0140035, -7.4885995, 1.1, 0.9, 1.1, 0.9
  2046,'',   161, 1, 1, 1, 1, 1.0085636, -26.892196, 1.1, 0.9, 1.1, 0.9
  2047,'',   161, 1, 1, 1, 1, 1.0215686, -24.876806, 1.1, 0.9, 1.1, 0.9
  2048,'',   161, 1, 1, 1, 1, 1.028408, 11.220644, 1.1, 0.9, 1.1, 0.9
  2049,'',   161, 1, 1, 1, 1, 1.018132, -0.084155082, 1.1, 0.9, 1.1, 0.9
  2050,'',   161, 1, 1, 1, 1, 1.0254673, -24.78992, 1.1, 0.9, 1.1, 0.9
  2051,'',   161, 1, 1, 1, 1, 1.0086203, -13.436455, 1.1, 0.9, 1.1, 0.9
  2052,'',   161, 1, 1, 1, 1, 1.0256203, 12.903472, 1.1, 0.9, 1.1, 0.9
  2053,'',   161, 1, 1, 1, 1, 1.0153389, -19.069302, 1.1, 0.9, 1.1, 0.9
  2054,'',   500, 1, 1, 1, 1, 1.017824, -6.3886878, 1.1, 0.9, 1.1, 0.9
  2055,'',   161, 1, 1, 1, 1, 1.0163976, -6.688411, 1.1, 0.9, 1.1, 0.9
  2056,'',    18, 2, 1, 1, 1, 1.017824, -6.3886878, 1.1, 0.9, 1.1, 0.9
  2057,'',    18, 2, 1, 1, 1, 1.0227542, -4.8059814, 1.1, 0.9, 1.1, 0.9
  2058,'',   161, 1, 1, 1, 1, 1.0319565, 17.92447, 1.1, 0.9, 1.1, 0.9
  2059,'',  13.8, 2, 1, 1, 1, 1.0218495, 22.274425, 1.1, 0.9, 1.1, 0.9
  2060,'',   161, 1, 1, 1, 1, 1.0248227, -24.175367, 1.1, 0.9, 1.1, 0.9
  2061,'',   161, 1, 1, 1, 1, 1.0218765, 4.4758062, 1.1, 0.9, 1.1, 0.9
  2062,'',    18, 2, 1, 1, 1, 1.02, 7.1100248, 1.1, 0.9, 1.1, 0.9
  2063,'',   161, 1, 1, 1, 1, 1.0097891, -26.616854, 1.1, 0.9, 1.1, 0.9
  2064,'',   161, 1, 1, 1, 1, 1.0272552, -23.498315, 1.1, 0.9, 1.1, 0.9
  2065,'',   161, 1, 1, 1, 1, 1.0102726, -22.232603, 1.1, 0.9, 1.1, 0.9
  2066,'',   161, 1, 1, 1, 1, 1.0227194, 13.937463, 1.1, 0.9, 1.1, 0.9
  2067,'',   161, 1, 1, 1, 1, 1.0143617, -6.2369475, 1.1, 0.9, 1.1, 0.9
  2068,'',   161, 1, 1, 1, 1, 1.0192803, -3.8682259, 1.1, 0.9, 1.1, 0.9
  2069,'',   161, 1, 1, 1, 1, 1.015, -26.479521, 1.1, 0.9, 1.1, 0.9
  2070,'',   161, 1, 1, 1, 1, 1.0210517, -3.4215883, 1.1, 0.9, 1.1, 0.9
  2071,'',    18, 2, 1, 1, 1, 1.0152022, 1.2996737, 1.1, 0.9, 1.1, 0.9
  2072,'',   161, 1, 1, 1, 1, 1.0183681, -25.534093, 1.1, 0.9, 1.1, 0.9
  2073,'',   161, 1, 1, 1, 1, 1.0208914, 15.911395, 1.1, 0.9, 1.1, 0.9
  2074,'',   115, 1, 1, 1, 1, 1.0098138, 17.915901, 1.1, 0.9, 1.1, 0.9
  2075,'',   115, 1, 1, 1, 1, 1.0098138, 17.915901, 1.1, 0.9, 1.1, 0.9
  2076,'',    24, 2, 1, 1, 1, 1.0262242, 16.990397, 1.1, 0.9, 1.1, 0.9
  2077,'',   161, 1, 1, 1, 1, 1.0160113, -18.363888, 1.1, 0.9, 1.1, 0.9
  2078,'',  13.8, 2, 1, 1, 1, 1.02, -15.104341, 1.1, 0.9, 1.1, 0.9
  2079,'',   161, 1, 1, 1, 1, 1.0284384, 8.4349001, 1.1, 0.9, 1.1, 0.9
  2080,'',   161, 1, 1, 1, 1, 1.0102616, -15.923056, 1.1, 0.9, 1.1, 0.9
  2081,'',   161, 1, 1, 1, 1, 1.0211937, -25.05775, 1.1, 0.9, 1.1, 0.9
  2082,'',   161, 1, 1, 1, 1, 1.0166919, -6.6527129, 1.1, 0.9, 1.1, 0.9
  2083,'',    20, 2, 1, 1, 1, 1.0227976, -6.1838274, 1.1, 0.9, 1.1, 0.9
  2084,'',    20, 2, 1, 1, 1, 1.0166919, -6.6527129, 1.1, 0.9, 1.1, 0.9
  2085,'',    20, 2, 1, 1, 1, 1.0166919, -6.6527129, 1.1, 0.9, 1.1, 0.9
  2086,'',   161, 1, 1, 1, 1, 1.0103097, -17.719121, 1.1, 0.9, 1.1, 0.9
  2087,'',   161, 1, 1, 1, 1, 1.0246309, 14.256859, 1.1, 0.9, 1.1, 0.9
  2088,'',   161, 1, 1, 1, 1, 1.0200703, -3.532859, 1.1, 0.9, 1.1, 0.9
  2089,'',    24, 2, 1, 1, 1, 1.0148549, 0.66134537, 1.1, 0.9, 1.1, 0.9
  2090,'',   161, 1, 1, 1, 1, 1.0299471, -23.95169, 1.1, 0.9, 1.1, 0.9
  2091,'',   161, 1, 1, 1, 1, 1.0263602, 8.8299362, 1.1, 0.9, 1.1, 0.9
  2092,'',   161, 1, 1, 1, 1, 1.0152029, -25.79384, 1.1, 0.9, 1.1, 0.9
  2093,'',   161, 1, 1, 1, 1, 1.0257933, 13.181827, 1.1, 0.9, 1.1, 0.9
  2094,'',  13.8, 2, 1, 1, 1, 1.0257933, 13.181827, 1.1, 0.9, 1.1, 0.9
  2095,'',  13.8, 2, 1, 1, 1, 1.0257933, 13.181827, 1.1, 0.9, 1.1, 0.9
  2096,'',   500, 1, 1, 1, 1, 1, 14.676481, 1.1, 0.9, 1.1, 0.9
  2097,'',   230, 1, 1, 1, 1, 1.0027951, 15.024587, 1.1, 0.9, 1.1, 0.9
  2098,'',   161, 1, 1, 1, 1, 1.0226514, 12.682505, 1.1, 0.9, 1.1, 0.9
  2099,'',    18, 2, 1, 1, 1, 1.0007543, 14.873197, 1.1, 0.9, 1.1, 0.9
  2100,'',    18, 2, 1, 1, 1, 1.0125342, 18.240707, 1.1, 0.9, 1.1, 0.9
  2101,'',   500, 1, 1, 1, 1, 1.0278931, -23.459822, 1.1, 0.9, 1.1, 0.9
  2102,'',   161, 1, 1, 1, 1, 1.0242885, -23.962525, 1.1, 0.9, 1.1, 0.9
  2103,'',    20, 2, 1, 1, 1, 1.0278931, -23.459822, 1.1, 0.9, 1.1, 0.9
  2104,'',    20, 2, 1, 1, 1, 1.0278931, -23.459822, 1.1, 0.9, 1.1, 0.9
  2105,'',    20, 2, 1, 1, 1, 1.0278931, -23.459822, 1.1, 0.9, 1.1, 0.9
  2106,'',   161, 1, 1, 1, 1, 1.0156832, -25.626193, 1.1, 0.9, 1.1, 0.9
  2107,'',   161, 1, 1, 1, 1, 1.0213085, -24.321921, 1.1, 0.9, 1.1, 0.9
  2108,'',   161, 1, 1, 1, 1, 1.0237073, -4.9048392, 1.1, 0.9, 1.1, 0.9
  2109,'',   161, 1, 1, 1, 1, 1.0166999, -7.1432208, 1.1, 0.9, 1.1, 0.9
...
0 / END OF BUS DATA, BEGIN LOAD DATA
1001, '1', 1, 1, 1, 14.837, 4.204, 0, 0, 0, 0, 1, 1, 0
1002, '1', 1, 1, 1, 11.005, 3.118, 0, 0, 0, 0, 1, 1, 0
1007, '1', 1, 1, 1, 5.004, 1.418, 0, 0, 0, 0, 1, 1, 0
1012, '1', 1, 1, 1, 2.131, 0.604, 0, 0, 0, 0, 1, 1, 0
1013, '1', 1, 1, 1, 20.867, 5.912, 0, 0, 0, 0, 1, 1, 0
1014, '1', 1, 1, 1, 1.585, 0.449, 0, 0, 0, 0, 1, 1, 0
1015, '1', 1, 1, 1, 5.361, 1.519, 0, 0, 0, 0, 1, 1, 0
1016, '1', 1, 1, 1, 2.063, 0.584, 0, 0, 0, 0, 1, 1, 0
1017, '1', 1, 1, 1, 13.098, 3.711, 0, 0, 0, 0, 1, 1, 0
1018, '1', 1, 1, 1, 0.049, 0.014, 0, 0, 0, 0, 1, 1, 0
1019, '1', 1, 1, 1, 44.108, 12.497, 0, 0, 0, 0, 1, 1, 0
1024, '1', 1, 1, 1, 45.009, 12.753, 0, 0, 0, 0, 1, 1, 0
1027, '1', 1, 1, 1, 72.264, 20.475, 0, 0, 0, 0, 1, 1, 0
1028, '1', 1, 1, 1, 7.15, 2.025, 0, 0, 0, 0, 1, 1, 0
1029, '1', 1, 1, 1, 59.393, 16.828, 0, 0, 0, 0, 1, 1, 0
1030, '1', 1, 1, 1, 17.584, 4.982, 0, 0, 0, 0, 1, 1, 0
1031, '1', 1, 1, 1, 6.602, 1.87, 0, 0, 0, 0, 1, 1, 0
1036, '1', 1, 1, 1, 9.707, 2.751, 0, 0, 0, 0, 1, 1, 0
1037, '1', 1, 1, 1, 72.996, 20.682, 0, 0, 0, 0, 1, 1, 0
1040, '1', 1, 1, 1, 31.671, 8.974, 0, 0, 0, 0, 1, 1, 0
1044, '1', 1, 1, 1, 10.483, 2.97, 0, 0, 0, 0, 1, 1, 0
1045, '1', 1, 1, 1, 70.372, 19.939, 0, 0, 0, 0, 1, 1, 0
1046, '1', 1, 1, 1, 7.914, 2.242, 0, 0, 0, 0, 1, 1, 0
1054, '1', 1, 1, 1, 10.702, 3.032, 0, 0, 0, 0, 1, 1, 0
1055, '1', 1, 1, 1, 2.84, 0.805, 0, 0, 0, 0, 1, 1, 0
1058, '1', 1, 1, 1, 9.606, 2.722, 0, 0, 0, 0, 1, 1, 0
1064, '1', 1, 1, 1, 88.363, 25.036, 0, 0, 0, 0, 1, 1, 0
1067, '1', 1, 1, 1, 72.506, 20.543, 0, 0, 0, 0, 1, 1, 0
1068, '1', 1, 1, 1, 42.414, 12.017, 0, 0, 0, 0, 1, 1, 0
1071, '1', 1, 1, 1, 65.304, 18.503, 0, 0, 0, 0, 1, 1, 0
1083, '1', 1, 1, 1, 28.52, 8.081, 0, 0, 0, 0, 1, 1, 0
1085, '1', 1, 1, 1, 15.206, 4.308, 0, 0, 0, 0, 1, 1, 0
1086, '1', 1, 1, 1, 28.325, 8.026, 0, 0, 0, 0, 1, 1, 0
1087, '1', 1, 1, 1, 0.649, 0.184, 0, 0, 0, 0, 1, 1, 0
1089, '1', 1, 1, 1, 28.991, 8.214, 0, 0, 0, 0, 1, 1, 0
1091, '1', 1, 1, 1, 8.298, 2.351, 0, 0, 0, 0, 1, 1, 0
2001, '1', 1, 1, 1, 28.903, 8.189, 0, 0, 0, 0, 1, 1, 0
2007, '1', 1, 1, 1, 5.702, 1.616, 0, 0, 0, 0, 1, 1, 0
2008, '1', 1, 1, 1, 4.818, 1.365, 0, 0, 0, 0, 1, 1, 0
2009, '1', 1, 1, 1, 23.391, 6.627, 0, 0, 0, 0, 1, 1, 0
2010, '1', 1, 1, 1, 33.952, 9.621, 0, 0, 0, 0, 1, 1, 0
2014, '1', 1, 1, 1, 15.198, 4.306, 0, 0, 0, 0, 1, 1, 0
2015, '1', 1, 1, 1, 2.801, 0.794, 0, 0, 0, 0, 1, 1, 0
2016, '1', 1, 1, 1, 41.401, 11.73, 0, 0, 0, 0, 1, 1, 0
2020, '1', 1, 1, 1, 28.673, 8.124, 0, 0, 0, 0, 1, 1, 0
2022, '1', 1, 1, 1, 6.912, 1.959, 0, 0, 0, 0, 1, 1, 0
2025, '1', 1, 1, 1, 23.68, 6.709, 0, 0, 0, 0, 1, 1, 0
2026, '1', 1, 1, 1, 11.1, 3.145, 0, 0, 0, 0, 1, 1, 0
2027, '1', 1, 1, 1, 2.125, 0.602, 0, 0, 0, 0, 1, 1, 0
2028, '1', 1, 1, 1, 8.51, 2.411, 0, 0, 0, 0, 1, 1, 0
2029, '1', 1, 1, 1, 1.913, 0.542, 0, 0, 0, 0, 1, 1, 0
2030, '1', 1, 1, 1, 28.178, 7.983, 0, 0, 0, 0, 1, 1, 0
2031, '1', 1, 1, 1, 3.446, 0.976, 0, 0, 0, 0, 1, 1, 0
2032, '1', 1, 1, 1, 2.005, 0.568, 0, 0, 0, 0, 1, 1, 0
2033, '1', 1, 1, 1, 8.112, 2.298, 0, 0, 0, 0, 1, 1, 0
2034, '1', 1, 1, 1, 3.192, 0.904, 0, 0, 0, 0, 1, 1, 0
2035, '1', 1, 1, 1, 2.799, 0.793, 0, 0, 0, 0, 1, 1, 0
2036, '1', 1, 1, 1, 24.856, 7.042, 0, 0, 0, 0, 1, 1, 0
2037, '1', 1, 1, 1, 2.092, 0.593, 0, 0, 0, 0, 1, 1, 0
2038, '1', 1, 1, 1, 1.556, 0.441, 0, 0, 0, 0, 1, 1, 0
2039, '1', 1, 1, 1, 3.323, 0.941, 0, 0, 0, 0, 1, 1, 0
2040, '1', 1, 1, 1, 9.505, 2.693, 0, 0, 0, 0, 1, 1, 0
2043, '1', 1, 1, 1, 2.532, 0.717, 0, 0, 0, 0, 1, 1, 0
2044, '1', 1, 1, 1, 16.38, 4.641, 0, 0, 0, 0, 1, 1, 0
2045, '1', 1, 1, 1, 13.511, 3.828, 0, 0, 0, 0, 1, 1, 0
2046, '1', 1, 1, 1, 13.229, 3.748, 0, 0, 0, 0, 1, 1, 0
2047, '1', 1, 1, 1, 8.938, 2.532, 0, 0, 0, 0, 1, 1, 0
2048, '1', 1, 1, 1, 3.835, 1.087, 0, 0, 0, 0, 1, 1, 0
2049, '1', 1, 1, 1, 6.915, 1.959, 0, 0, 0, 0, 1, 1, 0
2050, '1', 1, 1, 1, 2.186, 0.619, 0, 0, 0, 0, 1, 1, 0
2051, '1', 1, 1, 1, 10.669, 3.023, 0, 0, 0, 0, 1, 1, 0
2052, '1', 1, 1, 1, 14.845, 4.206, 0, 0, 0, 0, 1, 1, 0
2053, '1', 1, 1, 1, 17.413, 4.934, 0, 0, 0, 0, 1, 1, 0
2055, '1', 1, 1, 1, 29.658, 8.403, 0, 0, 0, 0, 1, 1, 0
2060, '1', 1, 1, 1, 2.268, 0.643, 0, 0, 0, 0, 1, 1, 0
2063, '1', 1, 1, 1, 39.218, 11.112, 0, 0, 0, 0, 1, 1, 0
2064, '1', 1, 1, 1, 6.005, 1.702, 0, 0, 0, 0, 1, 1, 0
2065, '1', 1, 1, 1, 46.835, 13.27, 0, 0, 0, 0, 1, 1, 0
2066, '1', 1, 1, 1, 4.252, 1.204, 0, 0, 0, 0, 1, 1, 0
2067, '1', 1, 1, 1, 32.256, 9.139, 0, 0, 0, 0, 1, 1, 0
2068, '1', 1, 1, 1, 3.443, 0.975, 0, 0, 0, 0, 1, 1, 0
2069, '1', 1, 1, 1, 13.104, 3.713, 0, 0, 0, 0, 1, 1, 0
2072, '1', 1, 1, 1, 5.801, 1.644, 0, 0, 0, 0, 1, 1, 0
2079, '1', 1, 1, 1, 2.677, 0.759, 0, 0, 0, 0, 1, 1, 0
2080, '1', 1, 1, 1, 10.12, 2.867, 0, 0, 0, 0, 1, 1, 0
2081, '1', 1, 1, 1, 2.668, 0.756, 0, 0, 0, 0, 1, 1, 0
2082, '1', 1, 1, 1, 35.283, 9.997, 0, 0, 0, 0, 1, 1, 0
2086, '1', 1, 1, 1, 1.311, 0.371, 0, 0, 0, 0, 1, 1, 0
2087, '1', 1, 1, 1, 4.719, 1.337, 0, 0, 0, 0, 1, 1, 0
2090, '1', 1, 1, 1, 1.449, 0.41, 0, 0, 0, 0, 1, 1, 0
2091, '1', 1, 1, 1, 10.188, 2.887, 0, 0, 0, 0, 1, 1, 0
2092, '1', 1, 1, 1, 14.409, 4.083, 0, 0, 0, 0, 1, 1, 0
2106, '1', 1, 1, 1, 8.609, 2.439, 0, 0, 0, 0, 1, 1, 0
2107, '1', 1, 1, 1, 44.32, 12.557, 0, 0, 0, 0, 1, 1, 0
2108, '1', 1, 1, 1, 1.282, 0.363, 0, 0, 0, 0, 1, 1, 0
2109, '1', 1, 1, 1, 20.208, 5.726, 0, 0, 0, 0, 1, 1, 0
2110, '1', 1, 1, 1, 5.134, 1.455, 0, 0, 0, 0, 1, 1, 0
2111, '1', 1, 1, 1, 8.34, 2.363, 0, 0, 0, 0, 1, 1, 0
2112, '1', 1, 1, 1, 2.715, 0.769, 0, 0, 0, 0, 1, 1, 0
2114, '1', 1, 1, 1, 42.303, 11.986, 0, 0, 0, 0, 1, 1, 0
2121, '1', 1, 1, 1, 1.395, 0.395, 0, 0, 0, 0, 1, 1, 0
2122, '1', 1, 1, 1, 4.018, 1.139, 0, 0, 0, 0, 1, 1, 0
2124, '1', 1, 1, 1, 12.722, 3.605, 0, 0, 0, 0, 1, 1, 0
2125, '1', 1, 1, 1, 2.424, 0.687, 0, 0, 0, 0, 1, 1, 0
2126, '1', 1, 1, 1, 8.508, 2.411, 0, 0, 0, 0, 1, 1, 0
2129, '1', 1, 1, 1, 3.965, 1.123, 0, 0, 0, 0, 1, 1, 0
2132, '1', 1, 1, 1, 7.136, 2.022, 0, 0, 0, 0, 1, 1, 0
2133, '1', 1, 1, 1, 3.394, 0.962, 0, 0, 0, 0, 1, 1, 0
3002, '1', 1, 1, 1, 68.537, 19.419, 0, 0, 0, 0, 1, 1, 0
3005, '1', 1, 1, 1, 4.458, 1.263, 0, 0, 0, 0, 1, 1, 0
3006, '1', 1, 1, 1, 4.462, 1.264, 0, 0, 0, 0, 1, 1, 0
3007, '1', 1, 1, 1, 9.087, 2.575, 0, 0, 0, 0, 1, 1, 0
3008, '1', 1, 1, 1, 12.03, 3.408, 0, 0, 0, 0, 1, 1, 0
3009, '1', 1, 1, 1, 7.615, 2.158, 0, 0, 0, 0, 1, 1, 0
3010, '1', 1, 1, 1, 2.837, 0.804, 0, 0, 0, 0, 1, 1, 0
3011, '1', 1, 1, 1, 16.481, 4.669, 0, 0, 0, 0, 1, 1, 0
3012, '1', 1, 1, 1, 0.343, 0.097, 0, 0, 0, 0, 1, 1, 0
3013, '1', 1, 1, 1, 39.204, 11.108, 0, 0, 0, 0, 1, 1, 0
3014, '1', 1, 1, 1, 13.361, 3.786, 0, 0, 0, 0, 1, 1, 0
3015, '1', 1, 1, 1, 3.257, 0.923, 0, 0, 0, 0, 1, 1, 0
3021, '1', 1, 1, 1, 1.179, 0.334, 0, 0, 0, 0, 1, 1, 0
3022, '1', 1, 1, 1, 14.933, 4.231, 0, 0, 0, 0, 1, 1, 0
3023, '1', 1, 1, 1, 6.32, 1.791, 0, 0, 0, 0, 1, 1, 0
3024, '1', 1, 1, 1, 6.152, 1.743, 0, 0, 0, 0, 1, 1, 0
3025, '1', 1, 1, 1, 8.304, 2.353, 0, 0, 0, 0, 1, 1, 0
3029, '1', 1, 1, 1, 2.955, 0.837, 0, 0, 0, 0, 1, 1, 0
3030, '1', 1, 1, 1, 78.775, 22.32, 0, 0, 0, 0, 1, 1, 0
3031, '1', 1, 1, 1, 8.947, 2.535, 0, 0, 0, 0, 1, 1, 0
3032, '1', 1, 1, 1, 44.248, 12.537, 0, 0, 0, 0, 1, 1, 0
3035, '1', 1, 1, 1, 2.104, 0.596, 0, 0, 0, 0, 1, 1, 0
3036, '1', 1, 1, 1, 3.524, 0.999, 0, 0, 0, 0, 1, 1, 0
3040, '1', 1, 1, 1, 8.87, 2.513, 0, 0, 0, 0, 1, 1, 0
3042, '1', 1, 1, 1, 5.316, 1.506, 0, 0, 0, 0, 1, 1, 0
3049, '1', 1, 1, 1, 6.427, 1.821, 0, 0, 0, 0, 1, 1, 0
3051, '1', 1, 1, 1, 88.231, 24.999, 0, 0, 0, 0, 1, 1, 0
3052, '1', 1, 1, 1, 4.904, 1.39, 0, 0, 0, 0, 1, 1, 0
3066, '1', 1, 1, 1, 13.381, 3.791, 0, 0, 0, 0, 1, 1, 0
3069, '1', 1, 1, 1, 2.316, 0.656, 0, 0, 0, 0, 1, 1, 0
3072, '1', 1, 1, 1, 3.635, 1.03, 0, 0, 0, 0, 1, 1, 0
3075, '1', 1, 1, 1, 7.398, 2.096, 0, 0, 0, 0, 1, 1, 0
3076, '1', 1, 1, 1, 6.555, 1.857, 0, 0, 0, 0, 1, 1, 0
3077, '1', 1, 1, 1, 41.692, 11.813, 0, 0, 0, 0, 1, 1, 0
3093, '1', 1, 1, 1, 3.064, 0.868, 0, 0, 0, 0, 1, 1, 0
3099, '1', 1, 1, 1, 7.335, 2.078, 0, 0, 0, 0, 1, 1, 0
3100, '1', 1, 1, 1, 5.178, 1.467, 0, 0, 0, 0, 1, 1, 0
3101, '1', 1, 1, 1, 5.728, 1.623, 0, 0, 0, 0, 1, 1, 0
3102, '1', 1, 1, 1, 45.7, 12.948, 0, 0, 0, 0, 1, 1, 0
3103, '1', 1, 1, 1, 23.877, 6.765, 0, 0, 0, 0, 1, 1, 0
3107, '1', 1, 1, 1, 9.029, 2.558, 0, 0, 0, 0, 1, 1, 0
3108, '1', 1, 1, 1, 14.285, 4.047, 0, 0, 0, 0, 1, 1, 0
3114, '1', 1, 1, 1, 59.699, 16.914, 0, 0, 0, 0, 1, 1, 0
3115, '1', 1, 1, 1, 5.816, 1.647, 0, 0, 0, 0, 1, 1, 0
3123, '1', 1, 1, 1, 40.12, 11.367, 0, 0, 0, 0, 1, 1, 0
3124, '1', 1, 1, 1, 39.193, 11.105, 0, 0, 0, 0, 1, 1, 0
3125, '1', 1, 1, 1, 55.418, 15.702, 0, 0, 0, 0, 1, 1, 0
3126, '1', 1, 1, 1, 6.047, 1.713, 0, 0, 0, 0, 1, 1, 0
3128, '1', 1, 1, 1, 1.713, 0.485, 0, 0, 0, 0, 1, 1, 0
3130, '1', 1, 1, 1, 55.962, 15.856, 0, 0, 0, 0, 1, 1, 0
3132, '1', 1, 1, 1, 5.808, 1.646, 0, 0, 0, 0, 1, 1, 0
3136, '1', 1, 1, 1, 28.515, 8.079, 0, 0, 0, 0, 1, 1, 0
3138, '1', 1, 1, 1, 6.648, 1.884, 0, 0, 0, 0, 1, 1, 0
3139, '1', 1, 1, 1, 9.058, 2.567, 0, 0, 0, 0, 1, 1, 0
3140, '1', 1, 1, 1, 0.135, 0.038, 0, 0, 0, 0, 1, 1, 0
3142, '1', 1, 1, 1, 4.292, 1.217, 0, 0, 0, 0, 1, 1, 0
3143, '1', 1, 1, 1, 3.494, 0.99, 0, 0, 0, 0, 1, 1, 0
3144, '1', 1, 1, 1, 3.374, 0.957, 0, 0, 0, 0, 1, 1, 0
3145, '1', 1, 1, 1, 1.785, 0.506, 0, 0, 0, 0, 1, 1, 0
3146, '1', 1, 1, 1, 7.309, 2.071, 0, 0, 0, 0, 1, 1, 0
3147, '1', 1, 1, 1, 21.108, 5.98, 0, 0, 0, 0, 1, 1, 0
4002, '1', 1, 1, 1, 0.633, 0.179, 0, 0, 0, 0, 1, 1, 0
4003, '1', 1, 1, 1, 79.876, 22.632, 0, 0, 0, 0, 1, 1, 0
4005, '1', 1, 1, 1, 102.997, 29.182, 0, 0, 0, 0, 1, 1, 0
4006, '1', 1, 1, 1, 1.728, 0.49, 0, 0, 0, 0, 1, 1, 0
4007, '1', 1, 1, 1, 115.244, 32.653, 0, 0, 0, 0, 1, 1, 0
4008, '1', 1, 1, 1, 20.389, 5.777, 0, 0, 0, 0, 1, 1, 0
4011, '1', 1, 1, 1, 10.071, 2.854, 0, 0, 0, 0, 1, 1, 0
4012, '1', 1, 1, 1, 8.622, 2.443, 0, 0, 0, 0, 1, 1, 0
4013, '1', 1, 1, 1, 57.949, 16.419, 0, 0, 0, 0, 1, 1, 0
4015, '1', 1, 1, 1, 100.278, 28.412, 0, 0, 0, 0, 1, 1, 0
4016, '1', 1, 1, 1, 3.919, 1.11, 0, 0, 0, 0, 1, 1, 0
4017, '1', 1, 1, 1, 56.2, 15.923, 0, 0, 0, 0, 1, 1, 0
4018, '1', 1, 1, 1, 4.478, 1.269, 0, 0, 0, 0, 1, 1, 0
4019, '1', 1, 1, 1, 85.232, 24.149, 0, 0, 0, 0, 1, 1, 0
4020, '1', 1, 1, 1, 73.927, 20.946, 0, 0, 0, 0, 1, 1, 0
4021, '1', 1, 1, 1, 20.062, 5.684, 0, 0, 0, 0, 1, 1, 0
4022, '1', 1, 1, 1, 3.492, 0.989, 0, 0, 0, 0, 1, 1, 0
4023, '1', 1, 1, 1, 3.178, 0.9, 0, 0, 0, 0, 1, 1, 0
4027, '1', 1, 1, 1, 40.861, 11.577, 0, 0, 0, 0, 1, 1, 0
4031, '1', 1, 1, 1, 1.724, 0.489, 0, 0, 0, 0, 1, 1, 0
4032, '1', 1, 1, 1, 57.346, 16.248, 0, 0, 0, 0, 1, 1, 0
4033, '1', 1, 1, 1, 79.221, 22.446, 0, 0, 0, 0, 1, 1, 0
4034, '1', 1, 1, 1, 23.62, 6.692, 0, 0, 0, 0, 1, 1, 0
4035, '1', 1, 1, 1, 49.673, 14.074, 0, 0, 0, 0, 1, 1, 0
4036, '1', 1, 1, 1, 22.006, 6.235, 0, 0, 0, 0, 1, 1, 0
4037, '1', 1, 1, 1, 18.023, 5.107, 0, 0, 0, 0, 1, 1, 0
4038, '1', 1, 1, 1, 52.273, 14.81, 0, 0, 0, 0, 1, 1, 0
4040, '1', 1, 1, 1, 141.603, 40.121, 0, 0, 0, 0, 1, 1, 0
4042, '1', 1, 1, 1, 135.023, 38.256, 0, 0, 0, 0, 1, 1, 0
4043, '1', 1, 1, 1, 1.553, 0.44, 0, 0, 0, 0, 1, 1, 0
4048, '1', 1, 1, 1, 8.223, 2.33, 0, 0, 0, 0, 1, 1, 0
...
0 / END OF LOAD DATA, BEGIN FIXED SHUNT DATA
0 / END OF FIXED SHUNT DATA, BEGIN GENERATOR DATA
1004, '1', 206.7, -30.38, 44.94, -30.38, 1.0201691, 0, 0, 0, 1.0, 0, 0, 1, 1, 1, 206.7, 0, 1, 1, 0, 1, 0, 1, 0, 1, 0, 1
1006, '1', 33.9, -4.94, 7.31, -4.94, 1.0052872, 0, 0, 0, 1.0, 0, 0, 1, 1, 1, 33.9, 0, 1, 1, 0, 1, 0, 1, 0, 1, 0, 1
1009, '1', 17.7, -11.88, 17.57, -11.88, 1.008543, 0, 0, 0, 1.0, 0, 0, 1, 1, 1, 17.7, 0, 1, 1, 0, 1, 0, 1, 0, 1, 0, 1
1011, '1', 0, 0, 0, 0, 1.049697, 0, 0, 0, 1.0, 0, 0, 1, 1, 1, 0, 0, 1, 1, 0, 1, 0, 1, 0, 1, 0, 1
1021, '1', 198.9, -28.73, 42.49, -28.73, 1, 0, 0, 0, 1.0, 0, 0, 1, 1, 1, 198.9, 0, 1, 1, 0, 1, 0, 1, 0, 1, 0, 1
1023, '1', 45.5, -25.92, 38.34, -25.92, 1.01, 0, 0, 0, 1.0, 0, 0, 1, 1, 1, 45.5, 0, 1, 1, 0, 1, 0, 1, 0, 1, 0, 1
1026, '1', 123.8, -17.88, 26.45, -17.88, 1.03, 0, 0, 0, 1.0, 0, 0, 1, 1, 1, 123.8, 0, 1, 1, 0, 1, 0, 1, 0, 1, 0, 1
1033, '1', 47.6, -40.03, 59.21, -40.03, 1.0135875, 0, 0, 0, 1.0, 0, 0, 1, 1, 1, 47.6, 0, 1, 1, 0, 1, 0, 1, 0, 1, 0, 1
1035, '1', 89.6, -12.96, 19.17, -12.96, 1, 0, 0, 0, 1.0, 0, 0, 1, 1, 1, 89.6, 0, 1, 1, 0, 1, 0, 1, 0, 1, 0, 1
1039, '1', 23.6, -21.24, 31.42, -21.24, 1, 0, 0, 0, 1.0, 0, 0, 1, 1, 1, 23.6, 0, 1, 1, 0, 1, 0, 1, 0, 1, 0, 1
1042, '1', 16.583, 25.96, 25.96, -17.55, 1.0038673, 0, 0, 0, 1.0, 0, 0, 1, 0, 1, 121.8, 0, 1, 1, 0, 1, 0, 1, 0, 1, 0, 1
1043, '1', 58.8, -8.47, 12.52, -8.47, 1.0199136, 0, 0, 0, 1.0, 0, 0, 1, 1, 1, 58.8, 0, 1, 1, 0, 1, 0, 1, 0, 1, 0, 1
1048, '1', 107.593, -9.675, 165.53, -36.1, 1.0087159, 0, 0, 0, 1.0, 0, 0, 1, 0, 1, 325.2, 97.56, 1, 1, 0, 1, 0, 1, 0, 1, 0, 1
1049, '1', 131.489, 0.351, 165.53, -36.1, 1.0087159, 0, 0, 0, 1.0, 0, 0, 1, 0, 1, 325.2, 97.56, 1, 1, 0, 1, 0, 1, 0, 1, 0, 1
1050, '1', 27.112235, -9.92, 45.5, -9.92, 1.0016458, 0, 0, 0, 1.0, 0, 0, 1, 1, 1, 89.4, 26.82, 1, 1, 0, 1, 0, 1, 0, 1, 0, 1
1051, '1', 27.112235, -9.92, 45.5, -9.92, 1, 0, 0, 0, 1.0, 0, 0, 1, 1, 1, 89.4, 26.82, 1, 1, 0, 1, 0, 1, 0, 1, 0, 1
1052, '1', 27.112235, -9.92, 45.5, -9.92, 1.0035814, 0, 0, 0, 1.0, 0, 0, 1, 1, 1, 89.4, 26.82, 1, 1, 0, 1, 0, 1, 0, 1, 0, 1
1053, '1', 55.84, -19.85, 91.01, -19.85, 1.0182929, 0, 0, 0, 1.0, 0, 0, 1, 0, 1, 178.8, 53.64, 1, 1, 0, 1, 0, 1, 0, 1, 0, 1
1057, '1', 119.378, 10.066, 25.56, -17.28, 1.015, 0, 0, 0, 1.0, 0, 0, 1, 0, 1, 119.7, 0, 1, 1, 0, 1, 0, 1, 0, 1, 0, 1
1059, '1', 0, 2.85, 2.85, -0.62, 1.0248668, 0, 0, 0, 1.0, 0, 0, 1, 0, 1, 5.6, 1.68, 1, 1, 0, 1, 0, 1, 0, 1, 0, 1
1060, '1', 0, 1.02, 1.02, -0.22, 1.0248668, 0, 0, 0, 1.0, 0, 0, 1, 0, 1, 2, 0.6, 1, 1, 0, 1, 0, 1, 0, 1, 0, 1
1062, '1', 1.496, 0, 0, 0, 1.0081209, 0, 0, 0, 1.0, 0, 0, 1, 0, 1, 1.5, 0.45, 1, 1, 0, 1, 0, 1, 0, 1, 0, 1
1063, '1', 69, 0, 0, 0, 1.0081209, 0, 0, 0, 1.0, 0, 0, 1, 0, 1, 230, 69, 1, 1, 0, 1, 0, 1, 0, 1, 0, 1
1066, '1', 140.7, -20.52, 30.35, -20.52, 1, 0, 0, 0, 1.0, 0, 0, 1, 1, 1, 140.7, 0, 1, 1, 0, 1, 0, 1, 0, 1, 0, 1
1070, '1', 142.2, -23.11, 34.19, -23.11, 1.04, 0, 0, 0, 1.0, 0, 0, 1, 1, 1, 142.2, 0, 1, 1, 0, 1, 0, 1, 0, 1, 0, 1
1072, '1', 58.268045, -21.33, 97.8, -21.33, 1.01, 0, 0, 0, 1.0, 0, 0, 1, 1, 1, 192.13, 57.64, 1, 1, 0, 1, 0, 1, 0, 1, 0, 1
1073, '1', 58.268045, -21.33, 97.8, -21.33, 1.01, 0, 0, 0, 1.0, 0, 0, 1, 1, 1, 192.13, 57.64, 1, 1, 0, 1, 0, 1, 0, 1, 0, 1
1074, '1', 58.268045, -21.33, 97.8, -21.33, 1.01, 0, 0, 0, 1.0, 0, 0, 1, 1, 1, 192.13, 57.64, 1, 1, 0, 1, 0, 1, 0, 1, 0, 1
1075, '1', 58.268045, -21.33, 97.8, -21.33, 1.01, 0, 0, 0, 1.0, 0, 0, 1, 1, 1, 192.13, 57.64, 1, 1, 0, 1, 0, 1, 0, 1, 0, 1
1076, '1', 95.278, 29.129, 97.8, -21.33, 1.0086311, 0, 0, 0, 1.0, 0, 0, 1, 0, 1, 192.13, 57.64, 1, 1, 0, 1, 0, 1, 0, 1, 0, 1
1077, '1', 118.881, 21.47, 97.8, -21.33, 1.0086311, 0, 0, 0, 1.0, 0, 0, 1, 0, 1, 192.13, 57.64, 1, 1, 0, 1, 0, 1, 0, 1, 0, 1
1078, '1', 28.962175, -10.6, 48.61, -10.6, 1.01, 0, 0, 0, 1.0, 0, 0, 1, 1, 1, 95.5, 28.65, 1, 1, 0, 1, 0, 1, 0, 1, 0, 1
1079, '1', 28.962175, -10.6, 48.61, -10.6, 1.0518738, 0, 0, 0, 1.0, 0, 0, 1, 1, 1, 95.5, 28.65, 1, 1, 0, 1, 0, 1, 0, 1, 0, 1
1080, '1', 28.962175, -10.6, 48.61, -10.6, 1.01, 0, 0, 0, 1.0, 0, 0, 1, 1, 1, 95.5, 28.65, 1, 1, 0, 1, 0, 1, 0, 1, 0, 1
1081, '1', 115.841, 37.388, 145.83, -31.8, 1.0202081, 0, 0, 0, 1.0, 0, 0, 1, 0, 1, 286.5, 85.95, 1, 1, 0, 1, 0, 1, 0, 1, 0, 1
1082, '1', 100.1, -21.6, 31.95, -21.6, 1.0177084, 0, 0, 0, 1.0, 0, 0, 1, 1, 1, 100.1, 0, 1, 1, 0, 1, 0, 1, 0, 1, 0, 1
1084, '1', 114.9, -16.63, 24.6, -16.63, 1.0228735, 0, 0, 0, 1.0, 0, 0, 1, 1, 1, 114.9, 0, 1, 1, 0, 1, 0, 1, 0, 1, 0, 1
1088, '1', 66.8, -10.8, 15.97, -10.8, 1, 0, 0, 0, 1.0, 0, 0, 1, 1, 1, 66.8, 0, 1, 1, 0, 1, 0, 1, 0, 1, 0, 1
1090, '1', 143.7, -21.96, 32.48, -21.96, 1.02, 0, 0, 0, 1.0, 0, 0, 1, 1, 1, 143.7, 0, 1, 1, 0, 1, 0, 1, 0, 1, 0, 1
1090, '2', 33.9, -5.18, 7.67, -5.18, 1.02, 0, 0, 0, 1.0, 0, 0, 1, 1, 1, 33.9, 0, 1, 1, 0, 1, 0, 1, 0, 1, 0, 1
2004, '1', 117.54, -7.096, 199.43, -43.49, 1.0290979, 0, 0, 0, 1.0, 0, 0, 1, 0, 1, 391.8, 117.54, 1, 1, 0, 1, 0, 1, 0, 1, 0, 1
2005, '1', 117.54, -6.517, 199.43, -43.49, 1.0290979, 0, 0, 0, 1.0, 0, 0, 1, 0, 1, 391.8, 117.54, 1, 1, 0, 1, 0, 1, 0, 1, 0, 1
2006, '1', 129.628, -6.765, 199.43, -43.49, 1.0290979, 0, 0, 0, 1.0, 0, 0, 1, 0, 1, 391.8, 117.54, 1, 1, 0, 1, 0, 1, 0, 1, 0, 1
2013, '1', 200.3, -28.89, 42.73, -28.89, 1.0324661, 0, 0, 0, 1.0, 0, 0, 1, 1, 1, 200.3, 0, 1, 1, 0, 1, 0, 1, 0, 1, 0, 1
2019, '1', 217.415, 22.993, 46.43, -31.39, 1.025541, 0, 0, 0, 1.0, 0, 0, 1, 0, 1, 218, 0, 1, 1, 0, 1, 0, 1, 0, 1, 0, 1
2023, '1', 25.272393, -9.25, 42.42, -9.25, 1.0270244, 0, 0, 0, 1.0, 0, 0, 1, 1, 1, 83.33, 25, 1, 1, 0, 1, 0, 1, 0, 1, 0, 1
2024, '1', 50.54482, -18.5, 84.83, -18.5, 1.0257275, 0, 0, 0, 1.0, 0, 0, 1, 1, 1, 166.67, 50, 1, 1, 0, 1, 0, 1, 0, 1, 0, 1
2042, '1', 79.6, -11.46, 16.95, -11.46, 1.0228055, 0, 0, 0, 1.0, 0, 0, 1, 1, 1, 79.6, 0, 1, 1, 0, 1, 0, 1, 0, 1, 0, 1
2056, '1', 1.874, -0.73, 2.8, -0.73, 1.0227718, 0, 0, 0, 1.0, 0, 0, 1, 0, 1, 6, 1.8, 1, 1, 0, 1, 0, 1, 0, 1, 0, 1
2057, '1', 218.35357, -87.84, 335.52, -87.84, 1.0227542, 0, 0, 0, 1.0, 0, 0, 1, 1, 1, 720, 216, 1, 1, 0, 1, 0, 1, 0, 1, 0, 1
2059, '1', 78.7, -11.52, 17.04, -11.52, 1.0218495, 0, 0, 0, 1.0, 0, 0, 1, 1, 1, 78.7, 0, 1, 1, 0, 1, 0, 1, 0, 1, 0, 1
2062, '1', 116.5, -19.5, 28.84, -19.5, 1.02, 0, 0, 0, 1.0, 0, 0, 1, 1, 1, 116.5, 0, 1, 1, 0, 1, 0, 1, 0, 1, 0, 1
2071, '1', 149.3, -21.6, 31.95, -21.6, 1.0152022, 0, 0, 0, 1.0, 0, 0, 1, 1, 1, 149.3, 0, 1, 1, 0, 1, 0, 1, 0, 1, 0, 1
2076, '1', 27, -4.32, 6.39, -4.32, 1.0341402, 0, 0, 0, 1.0, 0, 0, 1, 1, 1, 27, 0, 1, 1, 0, 1, 0, 1, 0, 1, 0, 1
2078, '1', 82.7, -16.2, 23.96, -16.2, 1.02, 0, 0, 0, 1.0, 0, 0, 1, 1, 1, 82.7, 0, 1, 1, 0, 1, 0, 1, 0, 1, 0, 1
2083, '1', 6.065377, -2.22, 10.18, -2.22, 1.0227976, 0, 0, 0, 1.0, 0, 0, 1, 1, 1, 20, 6, 1, 1, 0, 1, 0, 1, 0, 1, 0, 1
2084, '1', 18.301, -2.22, 10.18, -2.22, 1.0192984, 0, 0, 0, 1.0, 0, 0, 1, 0, 1, 20, 6, 1, 1, 0, 1, 0, 1, 0, 1, 0, 1
2085, '1', 0, 20.36, 20.36, -4.44, 1.0192984, 0, 0, 0, 1.0, 0, 0, 1, 0, 1, 40, 12, 1, 1, 0, 1, 0, 1, 0, 1, 0, 1
2089, '1', 61, -9.73, 14.4, -9.73, 1.0148549, 0, 0, 0, 1.0, 0, 0, 1, 1, 1, 61, 0, 1, 1, 0, 1, 0, 1, 0, 1, 0, 1
2094, '1', 1.694, -1.44, 2.13, -1.44, 1.027283, 0, 0, 0, 1.0, 0, 0, 1, 0, 1, 10, 0, 1, 1, 0, 1, 0, 1, 0, 1, 0, 1
2095, '1', 0.978, -11.45, 16.93, -11.45, 1.027283, 0, 0, 0, 1.0, 0, 0, 1, 0, 1, 79.5, 0, 1, 1, 0, 1, 0, 1, 0, 1, 0, 1
2099, '1', 9.9, -1.44, 2.13, -1.44, 1.0007543, 0, 0, 0, 1.0, 0, 0, 1, 1, 1, 9.9, 0, 1, 1, 0, 1, 0, 1, 0, 1, 0, 1
2100, '1', 149.2, -21.6, 31.95, -21.6, 1.0125342, 0, 0, 0, 1.0, 0, 0, 1, 1, 1, 149.2, 0, 1, 1, 0, 1, 0, 1, 0, 1, 0, 1
2103, '1', 80.32, -29.72, 136.28, -29.72, 1.0281055, 0, 0, 0, 1.0, 0, 0, 1, 0, 1, 267.73, 80.32, 1, 1, 0, 1, 0, 1, 0, 1, 0, 1
2104, '1', 88.58, -29.72, 136.28, -29.72, 1.0281055, 0, 0, 0, 1.0, 0, 0, 1, 0, 1, 267.73, 80.32, 1, 1, 0, 1, 0, 1, 0, 1, 0, 1
2105, '1', 80.41, -29.72, 136.28, -29.72, 1.0281055, 0, 0, 0, 1.0, 0, 0, 1, 0, 1, 267.73, 80.32, 1, 1, 0, 1, 0, 1, 0, 1, 0, 1
2115, '1', 56.013822, -20.5, 94.02, -20.5, 1.0224221, 0, 0, 0, 1.0, 0, 0, 1, 1, 1, 184.72, 55.41, 1, 1, 0, 1, 0, 1, 0, 1, 0, 1
2116, '1', 56.013822, -20.5, 94.02, -20.5, 1.0260103, 0, 0, 0, 1.0, 0, 0, 1, 1, 1, 184.72, 55.41, 1, 1, 0, 1, 0, 1, 0, 1, 0, 1
2117, '1', 56.013822, -20.5, 94.02, -20.5, 1.0209367, 0, 0, 0, 1.0, 0, 0, 1, 1, 1, 184.72, 55.41, 1, 1, 0, 1, 0, 1, 0, 1, 0, 1
2118, '1', 56.013822, -20.5, 94.02, -20.5, 1.0200161, 0, 0, 0, 1.0, 0, 0, 1, 1, 1, 184.72, 55.41, 1, 1, 0, 1, 0, 1, 0, 1, 0, 1
2119, '1', 56.013822, -20.5, 94.02, -20.5, 1.0251473, 0, 0, 0, 1.0, 0, 0, 1, 1, 1, 184.72, 55.41, 1, 1, 0, 1, 0, 1, 0, 1, 0, 1
2120, '1', 56.013822, -20.5, 94.02, -20.5, 1.0204653, 0, 0, 0, 1.0, 0, 0, 1, 1, 1, 184.72, 55.41, 1, 1, 0, 1, 0, 1, 0, 1, 0, 1
2123, '1', 181.7, -26.16, 38.7, -26.16, 1.0328325, 0, 0, 0, 1.0, 0, 0, 1, 1, 1, 181.7, 0, 1, 1, 0, 1, 0, 1, 0, 1, 0, 1
2127, '1', 287.6, 28.287416, 61.47, -41.56, 1.0413265, 0, 0, 0, 1.0, 0, 0, 1, 1, 1, 287.6, 0, 1, 1, 0, 1, 0, 1, 0, 1, 0, 1
3004, '1', 37.2, -5.4, 7.99, -5.4, 1.0119743, 0, 0, 0, 1.0, 0, 0, 1, 1, 1, 37.2, 0, 1, 1, 0, 1, 0, 1, 0, 1, 0, 1
3017, '1', 118.3, -24.41, 36.1, -24.41, 1.01, 0, 0, 0, 1.0, 0, 0, 1, 1, 1, 118.3, 0, 1, 1, 0, 1, 0, 1, 0, 1, 0, 1
3020, '1', 143.4, -21.6, 31.95, -21.6, 1.03, 0, 0, 0, 1.0, 0, 0, 1, 1, 1, 143.4, 0, 1, 1, 0, 1, 0, 1, 0, 1, 0, 1
3028, '1', 193.8, -28.8, 42.6, -28.8, 1.04, 0, 0, 0, 1.0, 0, 0, 1, 1, 1, 193.8, 0, 1, 1, 0, 1, 0, 1, 0, 1, 0, 1
3034, '1', 95.4, -18.79, 27.8, -18.79, 1.03, 0, 0, 0, 1.0, 0, 0, 1, 1, 1, 95.4, 0, 1, 1, 0, 1, 0, 1, 0, 1, 0, 1
3039, '1', 129.4, -30.1, 44.52, -30.1, 1.04, 0, 0, 0, 1.0, 0, 0, 1, 1, 1, 129.4, 0, 1, 1, 0, 1, 0, 1, 0, 1, 0, 1
3043, '1', 0, 0.66, 0.66, -0.14, 1.0316605, 0, 0, 0, 1.0, 0, 0, 1, 0, 1, 1.3, 0.39, 1, 1, 0, 1, 0, 1, 0, 1, 0, 1
3044, '1', 0, 25.432, 45.5, -9.92, 1.0316605, 0, 0, 0, 1.0, 0, 0, 1, 0, 1, 89.4, 26.82, 1, 1, 0, 1, 0, 1, 0, 1, 0, 1
3045, '1', 134.1, 51.998, 227.52, -49.62, 1.0316605, 0, 0, 0, 1.0, 0, 0, 1, 0, 1, 447, 134.1, 1, 1, 0, 1, 0, 1, 0, 1, 0, 1
3048, '1', 208.9, -34.7, 51.33, -34.7, 1.0478311, 0, 0, 0, 1.0, 0, 0, 1, 1, 1, 208.9, 0, 1, 1, 0, 1, 0, 1, 0, 1, 0, 1
3055, '1', 121.5, -35.3, 52.22, -35.3, 1.04, 0, 0, 0, 1.0, 0, 0, 1, 1, 1, 121.5, 0, 1, 1, 0, 1, 0, 1, 0, 1, 0, 1
3056, '1', 121.5, -35.3, 52.22, -35.3, 1.04, 0, 0, 0, 1.0, 0, 0, 1, 1, 1, 121.5, 0, 1, 1, 0, 1, 0, 1, 0, 1, 0, 1
3057, '1', 121.5, -35.3, 52.22, -35.3, 1.04, 0, 0, 0, 1.0, 0, 0, 1, 1, 1, 121.5, 0, 1, 1, 0, 1, 0, 1, 0, 1, 0, 1
3060, '1', 157.9, -23.85, 35.28, -23.85, 1.04, 0, 0, 0, 1.0, 0, 0, 1, 1, 1, 157.9, 0, 1, 1, 0, 1, 0, 1, 0, 1, 0, 1
3061, '1', 2.9, -23.85, 35.28, -23.85, 1.04, 0, 0, 0, 1.0, 0, 0, 1, 1, 1, 2.9, 0, 1, 1, 0, 1, 0, 1, 0, 1, 0, 1
3062, '1', 157.9, -23.85, 35.28, -23.85, 1.04, 0, 0, 0, 1.0, 0, 0, 1, 1, 1, 157.9, 0, 1, 1, 0, 1, 0, 1, 0, 1, 0, 1
3063, '1', 157.9, -23.85, 35.28, -23.85, 1.04, 0, 0, 0, 1.0, 0, 0, 1, 1, 1, 157.9, 0, 1, 1, 0, 1, 0, 1, 0, 1, 0, 1
3065, '1', 75.4, -11.59, 17.15, -11.59, 1, 0, 0, 0, 1.0, 0, 0, 1, 1, 1, 75.4, 0, 1, 1, 0, 1, 0, 1, 0, 1, 0, 1
3068, '1', 89.3, -21.6, 31.95, -21.6, 1.04, 0, 0, 0, 1.0, 0, 0, 1, 1, 1, 89.3, 0, 1, 1, 0, 1, 0, 1, 0, 1, 0, 1
3071, '1', 31.8, -24.51, 36.25, -24.51, 1.0040806, 0, 0, 0, 1.0, 0, 0, 1, 1, 1, 31.8, 0, 1, 1, 0, 1, 0, 1, 0, 1, 0, 1
3074, '1', 0.5, -14.37, 21.26, -14.37, 1, 0, 0, 0, 1.0, 0, 0, 1, 1, 1, 0.5, 0, 1, 1, 0, 1, 0, 1, 0, 1, 0, 1
3081, '1', 236.8, -35.86, 53.04, -35.86, 1.04, 0, 0, 0, 1.0, 0, 0, 1, 1, 1, 236.8, 0, 1, 1, 0, 1, 0, 1, 0, 1, 0, 1
3084, '1', 228.8, -33.48, 49.52, -33.48, 1, 0, 0, 0, 1.0, 0, 0, 1, 1, 1, 228.8, 0, 1, 1, 0, 1, 0, 1, 0, 1, 0, 1
3086, '1', 36.8, -10.8, 15.97, -10.8, 1, 0, 0, 0, 1.0, 0, 0, 1, 1, 1, 36.8, 0, 1, 1, 0, 1, 0, 1, 0, 1, 0, 1
3087, '1', 0.923, 0.686, 15.97, -10.8, 1.0112997, 0, 0, 0, 1.0, 0, 0, 1, 0, 1, 36.8, 0, 1, 1, 0, 1, 0, 1, 0, 1, 0, 1
3092, '1', 183.9, -28.8, 42.6, -28.8, 1.04, 0, 0, 0, 1.0, 0, 0, 1, 1, 1, 183.9, 0, 1, 1, 0, 1, 0, 1, 0, 1, 0, 1
3095, '1', 117.2, -17.37, 25.69, -17.37, 1.04, 0, 0, 0, 1.0, 0, 0, 1, 1, 1, 117.2, 0, 1, 1, 0, 1, 0, 1, 0, 1, 0, 1
3098, '1', 155.5, -23.04, 34.08, -23.04, 1.04, 0, 0, 0, 1.0, 0, 0, 1, 1, 1, 155.5, 0, 1, 1, 0, 1, 0, 1, 0, 1, 0, 1
3105, '1', 0, -0.74, 17.071, -0.74, 1.0208823, 0, 0, 0, 1.0, 0, 0, 1, 1, 1, 0, 0, 1, 1, 0, 1, 0, 1, 0, 1, 0, 1
3106, '1', 0, -2.69, 62.477, -2.69, 1.0166742, 0, 0, 0, 1.0, 0, 0, 1, 1, 1, 0, 0, 1, 1, 0, 1, 0, 1, 0, 1, 0, 1
3110, '1', 82.1, -12.1, 17.89, -12.1, 1.04, 0, 0, 0, 1.0, 0, 0, 1, 1, 1, 82.1, 0, 1, 1, 0, 1, 0, 1, 0, 1, 0, 1
3112, '1', 74.2, -10.77, 15.93, -10.77, 1, 0, 0, 0, 1.0, 0, 0, 1, 1, 1, 74.2, 0, 1, 1, 0, 1, 0, 1, 0, 1, 0, 1
3113, '1', 62.8, -10.77, 15.93, -10.77, 1, 0, 0, 0, 1.0, 0, 0, 1, 1, 1, 62.8, 0, 1, 1, 0, 1, 0, 1, 0, 1, 0, 1
3117, '1', 59.4, -9.07, 13.42, -9.07, 1.0029781, 0, 0, 0, 1.0, 0, 0, 1, 1, 1, 59.4, 0, 1, 1, 0, 1, 0, 1, 0, 1, 0, 1
3118, '1', 102.3, -17.28, 25.56, -17.28, 1.000503, 0, 0, 0, 1.0, 0, 0, 1, 1, 1, 102.3, 0, 1, 1, 0, 1, 0, 1, 0, 1, 0, 1
3120, '1', 0, 0, 0, 0, 1.0057276, 0, 0, 0, 1.0, 0, 0, 1, 1, 1, 0, 0, 1, 1, 0, 1, 0, 1, 0, 1, 0, 1
3122, '1', 177.3, -28.37, 41.96, -28.37, 1, 0, 0, 0, 1.0, 0, 0, 1, 1, 1, 177.3, 0, 1, 1, 0, 1, 0, 1, 0, 1, 0, 1
3127, '1', 132.4, -19.44, 28.76, -19.44, 1.0161713, 0, 0, 0, 1.0, 0, 0, 1, 1, 1, 132.4, 0, 1, 1, 0, 1, 0, 1, 0, 1, 0, 1
3129, '1', 85.3, -18.22, 26.94, -18.22, 1.0135886, 0, 0, 0, 1.0, 0, 0, 1, 1, 1, 85.3, 0, 1, 1, 0, 1, 0, 1, 0, 1, 0, 1
3131, '1', 79, -16.42, 24.28, -16.42, 1.02, 0, 0, 0, 1.0, 0, 0, 1, 1, 1, 79, 0, 1, 1, 0, 1, 0, 1, 0, 1, 0, 1
3133, '1', 15.407, 5.257, 26.11, -5.69, 1.023515, 0, 0, 0, 1.0, 0, 0, 1, 0, 1, 51.3, 15.39, 1, 1, 0, 1, 0, 1, 0, 1, 0, 1
3133, '2', 15.407, 5.257, 26.11, -5.69, 1.023515, 0, 0, 0, 1.0, 0, 0, 1, 0, 1, 51.3, 15.39, 1, 1, 0, 1, 0, 1, 0, 1, 0, 1
3133, '3', 15.407, 5.257, 26.11, -5.69, 1.023515, 0, 0, 0, 1.0, 0, 0, 1, 0, 1, 51.3, 15.39, 1, 1, 0, 1, 0, 1, 0, 1, 0, 1
3137, '1', 76.6, -14.57, 21.56, -14.57, 1.03, 0, 0, 0, 1.0, 0, 0, 1, 1, 1, 76.6, 0, 1, 1, 0, 1, 0, 1, 0, 1, 0, 1
3141, '1', 90.7, -13.18, 19.49, -13.18, 1.0172153, 0, 0, 0, 1.0, 0, 0, 1, 1, 1, 90.7, 0, 1, 1, 0, 1, 0, 1, 0, 1, 0, 1
4010, '1', 43.4, -29.03, 42.94, -29.03, 1.03, 0, 0, 0, 1.0, 0, 0, 1, 1, 1, 43.4, 0, 1, 1, 0, 1, 0, 1, 0, 1, 0, 1
4026, '1', 124.34023, -50.02, 191.06, -50.02, 1.03, 0, 0, 0, 1.0, 0, 0, 1, 1, 1, 410, 123, 1, 1, 0, 1, 0, 1, 0, 1, 0, 1
4030, '1', 188.75453, -75.93, 290.04, -75.93, 1.0125589, 0, 0, 0, 1.0, 0, 0, 1, 1, 1, 622.4, 186.72, 1, 1, 0, 1, 0, 1, 0, 1, 0, 1
4045, '1', 0, -1.54, 35.862, -1.54, 1.02, 0, 0, 0, 1.0, 0, 0, 1, 1, 1, 0, 0, 1, 1, 0, 1, 0, 1, 0, 1, 0, 1
4046, '1', 0, -0.47, 10.936, -0.47, 1.02, 0, 0, 0, 1.0, 0, 0, 1, 1, 1, 0, 0, 1, 1, 0, 1, 0, 1, 0, 1, 0, 1
4047, '1', 0, -3.23, 75.102, -3.23, 1.02, 0, 0, 0, 1.0, 0, 0, 1, 1, 1, 0, 0, 1, 1, 0, 1, 0, 1, 0, 1, 0, 1
4050, '1', 29.6, -28.8, 42.6, -28.8, 1, 0, 0, 0, 1.0, 0, 0, 1, 1, 1, 29.6, 0, 1, 1, 0, 1, 0, 1, 0, 1, 0, 1
4052, '1', 13.404483, -4.91, 22.5, -4.91, 1.04, 0, 0, 0, 1.0, 0, 0, 1, 1, 1, 44.2, 13.26, 1, 1, 0, 1, 0, 1, 0, 1, 0, 1
4058, '1', 43.670715, -15.98, 73.3, -15.98, 1.03, 0, 0, 0, 1.0, 0, 0, 1, 1, 1, 144, 43.2, 1, 1, 0, 1, 0, 1, 0, 1, 0, 1
4059, '1', 43.670715, -15.98, 73.3, -15.98, 1.03, 0, 0, 0, 1.0, 0, 0, 1, 1, 1, 144, 43.2, 1, 1, 0, 1, 0, 1, 0, 1, 0, 1
4060, '1', 43.670715, -15.98, 73.3, -15.98, 1.03, 0, 0, 0, 1.0, 0, 0, 1, 1, 1, 144, 43.2, 1, 1, 0, 1, 0, 1, 0, 1, 0, 1
4061, '1', 52.263321, -19.13, 87.72, -19.13, 1.03, 0, 0, 0, 1.0, 0, 0, 1, 1, 1, 172.33, 51.7, 1, 1, 0, 1, 0, 1, 0, 1, 0, 1
4062, '1', 52.263321, -19.13, 87.72, -19.13, 1.03, 0, 0, 0, 1.0, 0, 0, 1, 1, 1, 172.33, 51.7, 1, 1, 0, 1, 0, 1, 0, 1, 0, 1
4063, '1', 52.263321, -19.13, 87.72, -19.13, 1.03, 0, 0, 0, 1.0, 0, 0, 1, 1, 1, 172.33, 51.7, 1, 1, 0, 1, 0, 1, 0, 1, 0, 1
4065, '1', 14.253636, -5.22, 23.92, -5.22, 1.02, 0, 0, 0, 1.0, 0, 0, 1, 1, 1, 47, 14.1, 1, 1, 0, 1, 0, 1, 0, 1, 0, 1
4075, '1', 100.08, 22.418, 89.75, -19.57, 1.014399, 0, 0, 0, 1.0, 0, 0, 1, 0, 1, 176.33, 52.9, 1, 1, 0, 1, 0, 1, 0, 1, 0, 1
4076, '1', 53.476397, -19.57, 89.75, -19.57, 1.03, 0, 0, 0, 1.0, 0, 0, 1, 1, 1, 176.33, 52.9, 1, 1, 0, 1, 0, 1, 0, 1, 0, 1
4077, '1', 53.476397, -19.57, 89.75, -19.57, 1.03, 0, 0, 0, 1.0, 0, 0, 1, 1, 1, 176.33, 52.9, 1, 1, 0, 1, 0, 1, 0, 1, 0, 1
4082, '1', 73.815639, -27.02, 123.89, -27.02, 1.04, 0, 0, 0, 1.0, 0, 0, 1, 1, 1, 243.4, 73.02, 1, 1, 0, 1, 0, 1, 0, 1, 0, 1
4083, '1', 73.815639, -27.02, 123.89, -27.02, 1.04, 0, 0, 0, 1.0, 0, 0, 1, 1, 1, 243.4, 73.02, 1, 1, 0, 1, 0, 1, 0, 1, 0, 1
4084, '1', 73.815639, -27.02, 123.89, -27.02, 1.04, 0, 0, 0, 1.0, 0, 0, 1, 1, 1, 243.4, 73.02, 1, 1, 0, 1, 0, 1, 0, 1, 0, 1
4085, '1', 106.75064, -39.07, 179.17, -39.07, 1.04, 0, 0, 0, 1.0, 0, 0, 1, 1, 1, 352, 105.6, 1, 1, 0, 1, 0, 1, 0, 1, 0, 1
4090, '1', 1.396, 0.278, 0.65, -0.17, 1.0085202, 0, 0, 0, 1.0, 0, 0, 1, 0, 1, 1.4, 0.42, 1, 1, 0, 1, 0, 1, 0, 1, 0, 1
4091, '1', 7.126818, -2.87, 10.95, -2.87, 1.01, 0, 0, 0, 1.0, 0, 0, 1, 1, 1, 23.5, 7.05, 1, 1, 0, 1, 0, 1, 0, 1, 0, 1
4092, '1', 7.58, 1.267, 3.54, -0.93, 1.0085202, 0, 0, 0, 1.0, 0, 0, 1, 0, 1, 7.6, 2.28, 1, 1, 0, 1, 0, 1, 0, 1, 0, 1
4093, '1', 8.4915279, -3.42, 13.05, -3.42, 1.01, 0, 0, 0, 1.0, 0, 0, 1, 1, 1, 28, 8.4, 1, 1, 0, 1, 0, 1, 0, 1, 0, 1
4094, '1', 8.4915279, -3.42, 13.05, -3.42, 1.01, 0, 0, 0, 1.0, 0, 0, 1, 1, 1, 28, 8.4, 1, 1, 0, 1, 0, 1, 0, 1, 0, 1
4095, '1', 8.4915279, -3.42, 13.05, -3.42, 1.01, 0, 0, 0, 1.0, 0, 0, 1, 1, 1, 28, 8.4, 1, 1, 0, 1, 0, 1, 0, 1, 0, 1
4096, '1', 16.585, 0.307, 13.05, -3.42, 1.0085202, 0, 0, 0, 1.0, 0, 0, 1, 0, 1, 28, 8.4, 1, 1, 0, 1, 0, 1, 0, 1, 0, 1
4097, '1', 8.4915279, -3.42, 13.05, -3.42, 1.01, 0, 0, 0, 1.0, 0, 0, 1, 1, 1, 28, 8.4, 1, 1, 0, 1, 0, 1, 0, 1, 0, 1
4098, '1', 19.788, 0.317, 13.05, -3.42, 1.0085202, 0, 0, 0, 1.0, 0, 0, 1, 0, 1, 28, 8.4, 1, 1, 0, 1, 0, 1, 0, 1, 0, 1
4105, '1', 85.3, -25.92, 38.34, -25.92, 1.01, 0, 0, 0, 1.0, 0, 0, 1, 1, 1, 85.3, 0, 1, 1, 0, 1, 0, 1, 0, 1, 0, 1
4115, '1', 39.970835, -14.63, 67.09, -14.63, 1.04, 0, 0, 0, 1.0, 0, 0, 1, 1, 1, 131.8, 39.54, 1, 1, 0, 1, 0, 1, 0, 1, 0, 1
4116, '1', 39.970835, -14.63, 67.09, -14.63, 1.04, 0, 0, 0, 1.0, 0, 0, 1, 1, 1, 131.8, 39.54, 1, 1, 0, 1, 0, 1, 0, 1, 0, 1
4133, '1', 10.091, -3.73, 17.1, -3.73, 1.0169433, 0, 0, 0, 1.0, 0, 0, 1, 0, 1, 33.6, 10.08, 1, 1, 0, 1, 0, 1, 0, 1, 0, 1
4134, '1', 10.189833, -3.73, 17.1, -3.73, 1.0115981, 0, 0, 0, 1.0, 0, 0, 1, 1, 1, 33.6, 10.08, 1, 1, 0, 1, 0, 1, 0, 1, 0, 1
4135, '1', 10.189833, -3.73, 17.1, -3.73, 1.0119934, 0, 0, 0, 1.0, 0, 0, 1, 1, 1, 33.6, 10.08, 1, 1, 0, 1, 0, 1, 0, 1, 0, 1
4136, '1', 10.189833, -3.73, 17.1, -3.73, 1.010293, 0, 0, 0, 1.0, 0, 0, 1, 1, 1, 33.6, 10.08, 1, 1, 0, 1, 0, 1, 0, 1, 0, 1
4137, '1', 0, -7.46, 34.2, -7.46, 1.0169433, 0, 0, 0, 1.0, 0, 0, 1, 0, 1, 67.2, 20.16, 1, 1, 0, 1, 0, 1, 0, 1, 0, 1
4138, '1', 0, -7.33, 33.59, -7.33, 1.0169433, 0, 0, 0, 1.0, 0, 0, 1, 0, 1, 66, 19.8, 1, 1, 0, 1, 0, 1, 0, 1, 0, 1
4142, '1', 47.5, -27.07, 40.04, -27.07, 1.0300982, 0, 0, 0, 1.0, 0, 0, 1, 1, 1, 47.5, 0, 1, 1, 0, 1, 0, 1, 0, 1, 0, 1
4153, '1', 75.7, -40.78, 60.32, -40.78, 1.0255884, 0, 0, 0, 1.0, 0, 0, 1, 1, 1, 75.7, 0, 1, 1, 0, 1, 0, 1, 0, 1, 0, 1
4160, '1', 59.976481, -21.95, 100.66, -21.95, 1.03, 0, 0, 0, 1.0, 0, 0, 1, 1, 1, 197.77, 59.33, 1, 1, 0, 1, 0, 1, 0, 1, 0, 1
4161, '1', 59.976481, -21.95, 100.66, -21.95, 1.03, 0, 0, 0, 1.0, 0, 0, 1, 1, 1, 197.77, 59.33, 1, 1, 0, 1, 0, 1, 0, 1, 0, 1
4162, '1', 59.976481, -21.95, 100.66, -21.95, 1.03, 0, 0, 0, 1.0, 0, 0, 1, 1, 1, 197.77, 59.33, 1, 1, 0, 1, 0, 1, 0, 1, 0, 1
4163, '1', 8.976, 4.58, 4.58, -1, 1.0188696, 0, 0, 0, 1.0, 0, 0, 1, 0, 1, 9, 2.7, 1, 1, 0, 1, 0, 1, 0, 1, 0, 1
4166, '1', 53.7, -28.94, 42.81, -28.94, 1.0068116, 0, 0, 0, 1.0, 0, 0, 1, 1, 1, 53.7, 0, 1, 1, 0, 1, 0, 1, 0, 1, 0, 1
4177, '1', 148.7, -21.6, 31.95, -21.6, 1.04, 0, 0, 0, 1.0, 0, 0, 1, 1, 1, 148.7, 0, 1, 1, 0, 1, 0, 1, 0, 1, 0, 1
4181, '1', 77.4, -28.81, 42.62, -28.81, 1.0204248, 0, 0, 0, 1.0, 0, 0, 1, 1, 1, 77.4, 0, 1, 1, 0, 1, 0, 1, 0, 1, 0, 1
4183, '1', 203, -29.23, 43.24, -29.23, 1.0204615, 0, 0, 0, 1.0, 0, 0, 1, 1, 1, 203, 0, 1, 1, 0, 1, 0, 1, 0, 1, 0, 1
4192, '1', 22.745164, -8.33, 38.17, -8.33, 1.02, 0, 0, 0, 1.0, 0, 0, 1, 1, 1, 75, 22.5, 1, 1, 0, 1, 0, 1, 0, 1, 0, 1
4192, '10', 55.730717, -20.4, 93.54, -20.4, 1.02, 0, 0, 0, 1.0, 0, 0, 1, 1, 1, 183.77, 55.13, 1, 1, 0, 1, 0, 1, 0, 1, 0, 1
4192, '2', 23.936, 8.923, 12.22, -2.66, 1.02, 0, 0, 0, 1.0, 0, 0, 1, 0, 1, 24, 7.2, 1, 1, 0, 1, 0, 1, 0, 1, 0, 1
4192, '3', 18.4994, -6.77, 31.05, -6.77, 1.02, 0, 0, 0, 1.0, 0, 0, 1, 1, 1, 61, 18.3, 1, 1, 0, 1, 0, 1, 0, 1, 0, 1
4192, '4', 3.1539961, -1.15, 5.29, -1.15, 1.02, 0, 0, 0, 1.0, 0, 0, 1, 1, 1, 10.4, 3.12, 1, 1, 0, 1, 0, 1, 0, 1, 0, 1
4192, '5', 80.972784, -29.64, 135.9, -29.64, 1.02, 0, 0, 0, 1.0, 0, 0, 1, 1, 1, 267, 80.1, 1, 1, 0, 1, 0, 1, 0, 1, 0, 1
4192, '6', 80.972784, -29.64, 135.9, -29.64, 1.02, 0, 0, 0, 1.0, 0, 0, 1, 1, 1, 267, 80.1, 1, 1, 0, 1, 0, 1, 0, 1, 0, 1
4192, '7', 80.972784, -29.64, 135.9, -29.64, 1.02, 0, 0, 0, 1.0, 0, 0, 1, 1, 1, 267, 80.1, 1, 1, 0, 1, 0, 1, 0, 1, 0, 1
4192, '8', 55.730717, -20.4, 93.54, -20.4, 1.02, 0, 0, 0, 1.0, 0, 0, 1, 1, 1, 183.77, 55.13, 1, 1, 0, 1, 0, 1, 0, 1, 0, 1
4192, '9', 55.730717, -20.4, 93.54, -20.4, 1.02, 0, 0, 0, 1.0, 0, 0, 1, 1, 1, 183.77, 55.13, 1, 1, 0, 1, 0, 1, 0, 1, 0, 1
4194, '1', 45.5, -29.03, 42.94, -29.03, 1.006981, 0, 0, 0, 1.0, 0, 0, 1, 1, 1, 45.5, 0, 1, 1, 0, 1, 0, 1, 0, 1, 0, 1
4195, '1', 91.5, -13.25, 19.6, -13.25, 1.0286676, 0, 0, 0, 1.0, 0, 0, 1, 1, 1, 91.5, 0, 1, 1, 0, 1, 0, 1, 0, 1, 0, 1
5020, '1', 20.3, -17.28, 25.56, -17.28, 1.0352439, 0, 0, 0, 1.0, 0, 0, 1, 1, 1, 20.3, 0, 1, 1, 0, 1, 0, 1, 0, 1, 0, 1
5023, '1', 0, 2.44, 2.44, -0.53, 1.0246067, 0, 0, 0, 1.0, 0, 0, 1, 0, 1, 4.8, 1.44, 1, 1, 0, 1, 0, 1, 0, 1, 0, 1
5035, '1', 1.261, -0.47, 2.14, -0.47, 1.0221296, 0, 0, 0, 1.0, 0, 0, 1, 0, 1, 4.2, 1.26, 1, 1, 0, 1, 0, 1, 0, 1, 0, 1
5036, '1', 0, 3.26, 3.26, -0.71, 1.0221296, 0, 0, 0, 1.0, 0, 0, 1, 0, 1, 6.4, 1.92, 1, 1, 0, 1, 0, 1, 0, 1, 0, 1
5037, '1', 93.548343, -34.24, 157.01, -34.24, 1.02, 0, 0, 0, 1.0, 0, 0, 1, 1, 1, 308.47, 92.54, 1, 1, 0, 1, 0, 1, 0, 1, 0, 1
5038, '1', 93.548343, -34.24, 157.01, -34.24, 1.02, 0, 0, 0, 1.0, 0, 0, 1, 1, 1, 308.47, 92.54, 1, 1, 0, 1, 0, 1, 0, 1, 0, 1
5039, '1', 93.548343, -34.24, 157.01, -34.24, 1.0205799, 0, 0, 0, 1.0, 0, 0, 1, 1, 1, 308.47, 92.54, 1, 1, 0, 1, 0, 1, 0, 1, 0, 1
5040, '1', 93.548343, -34.24, 157.01, -34.24, 1.02, 0, 0, 0, 1.0, 0, 0, 1, 1, 1, 308.47, 92.54, 1, 1, 0, 1, 0, 1, 0, 1, 0, 1
5041, '1', 93.548343, -34.24, 157.01, -34.24, 1.02, 0, 0, 0, 1.0, 0, 0, 1, 1, 1, 308.47, 92.54, 1, 1, 0, 1, 0, 1, 0, 1, 0, 1
5042, '1', 93.548343, -34.24, 157.01, -34.24, 1.02, 0, 0, 0, 1.0, 0, 0, 1, 1, 1, 308.47, 92.54, 1, 1, 0, 1, 0, 1, 0, 1, 0, 1
5051, '1', 25.686872, -9.4, 43.11, -9.4, 1.0283002, 0, 0, 0, 1.0, 0, 0, 1, 1, 1, 84.7, 25.41, 1, 1, 0, 1, 0, 1, 0, 1, 0, 1
5057, '1', 99.105, -35.23, 161.53, -35.23, 1.0337068, 0, 0, 0, 1.0, 0, 0, 1, 0, 1, 317.35, 95.2, 1, 1, 0, 1, 0, 1, 0, 1, 0, 1
5058, '1', 96.23737, -35.23, 161.53, -35.23, 1.0313358, 0, 0, 0, 1.0, 0, 0, 1, 1, 1, 317.35, 95.2, 1, 1, 0, 1, 0, 1, 0, 1, 0, 1
5065, '1', 3.2146498, -1.18, 5.4, -1.18, 1.02651, 0, 0, 0, 1.0, 0, 0, 1, 1, 1, 10.6, 3.18, 1, 1, 0, 1, 0, 1, 0, 1, 0, 1
5066, '1', 0, 0.92, 0.92, -0.2, 1.0255798, 0, 0, 0, 1.0, 0, 0, 1, 0, 1, 1.8, 0.54, 1, 1, 0, 1, 0, 1, 0, 1, 0, 1
5067, '1', 132.91264, -48.65, 223.08, -48.65, 1.03, 0, 0, 0, 1.0, 0, 0, 1, 1, 1, 438.27, 131.48, 1, 1, 0, 1, 0, 1, 0, 1, 0, 1
5068, '1', 132.91264, -48.65, 223.08, -48.65, 1.03, 0, 0, 0, 1.0, 0, 0, 1, 1, 1, 438.27, 131.48, 1, 1, 0, 1, 0, 1, 0, 1, 0, 1
5069, '1', 132.91264, -48.65, 223.08, -48.65, 1.03, 0, 0, 0, 1.0, 0, 0, 1, 1, 1, 438.27, 131.48, 1, 1, 0, 1, 0, 1, 0, 1, 0, 1
5089, '1', 123.788, -2.05, 47.569, -2.05, 1.0284778, 0, 0, 0, 1.0, 0, 0, 1, 0, 1, 123.9, 0, 1, 1, 0, 1, 0, 1, 0, 1, 0, 1
...
0 / END OF GENERATOR DATA, BEGIN BRANCH DATA
1001, 1064, '1', 0.00524, 0.0358, 0.00609, 221, 221, 221, 0, 0, 0, 0, 1, 1, 0, 1, 1, 0, 1, 0, 1, 0, 1
1001, 1064, '2', 0.00524, 0.0358, 0.00609, 221, 221, 221, 0, 0, 0, 0, 1, 1, 0, 1, 1, 0, 1, 0, 1, 0, 1
1001, 1071, '1', 0.00435, 0.02808, 0.00536, 221, 221, 221, 0, 0, 0, 0, 1, 1, 0, 1, 1, 0, 1, 0, 1, 0, 1
1001, 1071, '2', 0.00435, 0.02808, 0.00536, 221, 221, 221, 0, 0, 0, 0, 0, 1, 0, 1, 1, 0, 1, 0, 1, 0, 1
1002, 1007, '1', 0.07776, 0.46693, 0.06336, 98, 98, 98, 0, 0, 0, 0, 1, 1, 0, 1, 1, 0, 1, 0, 1, 0, 1
1010, 1002, '1', 0.05552, 0.1357, 0.01777, 98, 98, 98, 0, 0, 0, 0, 1, 1, 0, 1, 1, 0, 1, 0, 1, 0, 1
1022, 1003, '1', 0.00485, 0.02012, 0.00341, 221, 221, 221, 0, 0, 0, 0, 1, 1, 0, 1, 1, 0, 1, 0, 1, 0, 1
1055, 1003, '1', 0.01574, 0.03782, 0.00513, 98, 98, 98, 0, 0, 0, 0, 1, 1, 0, 1, 1, 0, 1, 0, 1, 0, 1
1004, 3133, '1', 0.0042, 0.03, 0.055, 523, 523, 523, 0, 0, 0, 0, 1, 1, 0, 1, 1, 0, 1, 0, 1, 0, 1
1025, 1005, '1', 0.01842, 0.0821, 0.01204, 149, 149, 149, 0, 0, 0, 0, 1, 1, 0, 1, 1, 0, 1, 0, 1, 0, 1
1005, 1061, '1', 0.00599, 0.02484, 0.00422, 221, 221, 221, 0, 0, 0, 0, 1, 1, 0, 1, 1, 0, 1, 0, 1, 0, 1
1067, 1005, '1', 0.01711, 0.04181, 0.00548, 98, 98, 98, 0, 0, 0, 0, 1, 1, 0, 1, 1, 0, 1, 0, 1, 0, 1
1007, 1015, '1', 0.06224, 0.37375, 0.05072, 98, 98, 98, 0, 0, 0, 0, 1, 1, 0, 1, 1, 0, 1, 0, 1, 0, 1
1031, 1007, '1', 0.04803, 0.27434, 0.04123, 98, 98, 98, 0, 0, 0, 0, 1, 1, 0, 1, 1, 0, 1, 0, 1, 0, 1
1008, 1032, '1', 0.04501, 0.11002, 0.01441, 98, 98, 98, 0, 0, 0, 0, 1, 1, 0, 1, 1, 0, 1, 0, 1, 0, 1
1008, 1069, '1', 0.0083, 0.03628, 0.00553, 149, 149, 149, 0, 0, 0, 0, 1, 1, 0, 1, 1, 0, 1, 0, 1, 0, 1
1010, 1015, '1', 0.04703, 0.28243, 0.03833, 98, 98, 98, 0, 0, 0, 0, 1, 1, 0, 1, 1, 0, 1, 0, 1, 0, 1
1010, 1030, '1', 0.0616, 0.3699, 0.0502, 98, 98, 98, 0, 0, 0, 0, 1, 1, 0, 1, 1, 0, 1, 0, 1, 0, 1
1012, 1087, '1', 0.04934, 0.20469, 0.03473, 149, 149, 149, 0, 0, 0, 0, 1, 1, 0, 1, 1, 0, 1, 0, 1, 0, 1
3051, 1012, '1', 0.0571, 0.24977, 0.03804, 149, 149, 149, 0, 0, 0, 0, 1, 1, 0, 1, 1, 0, 1, 0, 1, 0, 1
1013, 1031, '1', 0.04509, 0.27078, 0.03675, 98, 98, 98, 0, 0, 0, 0, 1, 1, 0, 1, 1, 0, 1, 0, 1, 0, 1
1047, 1013, '1', 0.00947, 0.06117, 0.01167, 221, 221, 221, 0, 0, 0, 0, 1, 1, 0, 1, 1, 0, 1, 0, 1, 0, 1
1086, 1013, '1', 0.079, 0.19311, 0.02529, 98, 98, 98, 0, 0, 0, 0, 1, 1, 0, 1, 1, 0, 1, 0, 1, 0, 1
1014, 1047, '1', 0.03566, 0.14794, 0.0251, 149, 149, 149, 0, 0, 0, 0, 1, 1, 0, 1, 1, 0, 1, 0, 1, 0, 1
1014, 1083, '1', 0.04105, 0.18293, 0.02682, 149, 149, 149, 0, 0, 0, 0, 1, 1, 0, 1, 1, 0, 1, 0, 1, 0, 1
1016, 1034, '1', 0.01828, 0.10976, 0.01489, 98, 98, 98, 0, 0, 0, 0, 1, 1, 0, 1, 1, 0, 1, 0, 1, 0, 1
1068, 1016, '1', 0.02773, 0.15837, 0.0238, 98, 98, 98, 0, 0, 0, 0, 1, 1, 0, 1, 1, 0, 1, 0, 1, 0, 1
1018, 1017, '1', 0.03227, 0.07887, 0.01033, 98, 98, 98, 0, 0, 0, 0, 1, 1, 0, 1, 1, 0, 1, 0, 1, 0, 1
1017, 1029, '1', 0.03244, 0.14188, 0.02161, 149, 149, 149, 0, 0, 0, 0, 1, 1, 0, 1, 1, 0, 1, 0, 1, 0, 1
1037, 1017, '1', 0.00752, 0.03352, 0.00491, 221, 221, 221, 0, 0, 0, 0, 1, 1, 0, 1, 1, 0, 1, 0, 1, 0, 1
1047, 1017, '1', 0.036, 0.156, 0.024, 150, 150, 150, 0, 0, 0, 0, 1, 1, 0, 1, 1, 0, 1, 0, 1, 0, 1
1024, 1018, '1', 0.01094, 0.06572, 0.00892, 98, 98, 98, 0, 0, 0, 0, 1, 1, 0, 1, 1, 0, 1, 0, 1, 0, 1
1019, 1040, '1', 0.04978, 0.20651, 0.03504, 149, 149, 149, 0, 0, 0, 0, 1, 1, 0, 1, 1, 0, 1, 0, 1, 0, 1
1019, 1045, '1', 0.01522, 0.0372, 0.00487, 221, 221, 221, 0, 0, 0, 0, 1, 1, 0, 1, 1, 0, 1, 0, 1, 0, 1
1019, 1071, '1', 0.0044, 0.028, 0.0054, 225, 225, 225, 0, 0, 0, 0, 1, 1, 0, 1, 1, 0, 1, 0, 1, 0, 1
1071, 1019, '2', 0.0044, 0.028, 0.0054, 225, 225, 225, 0, 0, 0, 0, 1, 1, 0, 1, 1, 0, 1, 0, 1, 0, 1
1019, 1084, '1', 0.03, 0.16, 0.025, 220, 220, 220, 0, 0, 0, 0, 1, 1, 0, 1, 1, 0, 1, 0, 1, 0, 1
1025, 1020, '1', 0.00828, 0.03434, 0.00583, 149, 149, 149, 0, 0, 0, 0, 1, 1, 0, 1, 1, 0, 1, 0, 1, 0, 1
1084, 1020, '1', 0.01056, 0.06337, 0.0086, 221, 221, 221, 0, 0, 0, 0, 1, 1, 0, 1, 1, 0, 1, 0, 1, 0, 1
1020, 3059, '1', 0.0189, 0.06, 0.006, 300, 300, 300, 0, 0, 0, 0, 1, 1, 0, 1, 1, 0, 1, 0, 1, 0, 1
1020, 3130, '1', 0.00996, 0.06938, 0.01134, 221, 221, 221, 0, 0, 0, 0, 1, 1, 0, 1, 1, 0, 1, 0, 1, 0, 1
1022, 1028, '1', 0.01433, 0.09253, 0.01765, 221, 221, 221, 0, 0, 0, 0, 1, 1, 0, 1, 1, 0, 1, 0, 1, 0, 1
1022, 1028, '2', 0.01433, 0.09253, 0.01765, 221, 221, 221, 0, 0, 0, 0, 1, 1, 0, 1, 1, 0, 1, 0, 1, 0, 1
1024, 1090, '1', 0.01414, 0.06303, 0.00924, 149, 149, 149, 0, 0, 0, 0, 1, 1, 0, 1, 1, 0, 1, 0, 1, 0, 1
1027, 1045, '1', 0.02505, 0.10957, 0.01669, 221, 221, 221, 0, 0, 0, 0, 1, 1, 0, 1, 1, 0, 1, 0, 1, 0, 1
1056, 1027, '1', 0.03121, 0.0763, 0.00999, 250, 250, 250, 0, 0, 0, 0, 1, 1, 0, 1, 1, 0, 1, 0, 1, 0, 1
1028, 3109, '1', 0.00428, 0.01875, 0.00286, 250, 250, 250, 0, 0, 0, 0, 1, 1, 0, 1, 1, 0, 1, 0, 1, 0, 1
1029, 1056, '1', 0.02054, 0.11733, 0.01763, 221, 221, 221, 0, 0, 0, 0, 1, 1, 0, 1, 1, 0, 1, 0, 1, 0, 1
1030, 1038, '1', 0.07404, 0.42285, 0.06354, 98, 98, 98, 0, 0, 0, 0, 1, 1, 0, 1, 1, 0, 1, 0, 1, 0, 1
1083, 1030, '1', 0.06537, 0.37334, 0.0561, 98, 98, 98, 0, 0, 0, 0, 1, 1, 0, 1, 1, 0, 1, 0, 1, 0, 1
1032, 1036, '1', 0.01956, 0.11746, 0.01594, 98, 98, 98, 0, 0, 0, 0, 1, 1, 0, 1, 1, 0, 1, 0, 1, 0, 1
1038, 1032, '1', 0.045, 0.11, 0.015, 155, 155, 155, 0, 0, 0, 0, 1, 1, 0, 1, 1, 0, 1, 0, 1, 0, 1
1033, 1081, '1', 0.003, 0.031, 0.059, 548, 548, 548, 0, 0, 0, 0, 1, 1, 0, 1, 1, 0, 1, 0, 1, 0, 1
1033, 3050, '1', 0.0139, 0.136, 0.262, 647, 647, 647, 0, 0, 0, 0, 1, 1, 0, 1, 1, 0, 1, 0, 1, 0, 1
1067, 1034, '1', 0.00795, 0.04771, 0.00647, 98, 98, 98, 0, 0, 0, 0, 1, 1, 0, 1, 1, 0, 1, 0, 1, 0, 1
1088, 1036, '1', 0.02065, 0.11793, 0.01772, 98, 98, 98, 0, 0, 0, 0, 1, 1, 0, 1, 1, 0, 1, 0, 1, 0, 1
1037, 1071, '1', 0.00669, 0.04319, 0.00824, 300, 300, 300, 0, 0, 0, 0, 1, 1, 0, 1, 1, 0, 1, 0, 1, 0, 1
1082, 1038, '1', 0.01115, 0.04969, 0.00729, 149, 149, 149, 0, 0, 0, 0, 1, 1, 0, 1, 1, 0, 1, 0, 1, 0, 1
1083, 1038, '1', 0.01, 0.05, 0.007, 221, 221, 221, 0, 0, 0, 0, 1, 1, 0, 1, 1, 0, 1, 0, 1, 0, 1
1040, 1090, '1', 0.02991, 0.13329, 0.01955, 149, 149, 149, 0, 0, 0, 0, 1, 1, 0, 1, 1, 0, 1, 0, 1, 0, 1
1065, 1041, '1', 0.00386, 0.02203, 0.00331, 98, 98, 98, 0, 0, 0, 0, 1, 1, 0, 1, 1, 0, 1, 0, 1, 0, 1
1041, 1067, '1', 0.00393, 0.01722, 0.00262, 149, 149, 149, 0, 0, 0, 0, 1, 1, 0, 1, 1, 0, 1, 0, 1, 0, 1
1044, 3019, '1', 0.03857, 0.17192, 0.02521, 149, 149, 149, 0, 0, 0, 0, 1, 1, 0, 1, 1, 0, 1, 0, 1, 0, 1
3130, 1044, '1', 0.02731, 0.19029, 0.03111, 221, 221, 221, 0, 0, 0, 0, 1, 1, 0, 1, 1, 0, 1, 0, 1, 0, 1
1045, 1064, '1', 0.00545, 0.03794, 0.0062, 221, 221, 221, 0, 0, 0, 0, 1, 1, 0, 1, 1, 0, 1, 0, 1, 0, 1
1087, 1046, '1', 0.03262, 0.14269, 0.02173, 149, 149, 149, 0, 0, 0, 0, 1, 1, 0, 1, 1, 0, 1, 0, 1, 0, 1
1046, 3009, '1', 0.05654, 0.23454, 0.0398, 149, 149, 149, 0, 0, 0, 0, 1, 1, 0, 1, 1, 0, 1, 0, 1, 0, 1
1047, 1085, '1', 0.00947, 0.06117, 0.01167, 221, 221, 221, 0, 0, 0, 0, 1, 1, 0, 1, 1, 0, 1, 0, 1, 0, 1
1053, 1081, '1', 0.003, 0.03, 0.06, 548, 548, 548, 0, 0, 0, 0, 1, 1, 0, 1, 1, 0, 1, 0, 1, 0, 1
1054, 1056, '1', 0.02202, 0.09633, 0.01467, 149, 149, 149, 0, 0, 0, 0, 1, 1, 0, 1, 1, 0, 1, 0, 1, 0, 1
1089, 1054, '1', 0.08737, 0.21357, 0.02796, 98, 98, 98, 0, 0, 0, 0, 1, 1, 0, 1, 1, 0, 1, 0, 1, 0, 1
1055, 1089, '1', 0.04982, 0.12179, 0.01595, 98, 98, 98, 0, 0, 0, 0, 1, 1, 0, 1, 1, 0, 1, 0, 1, 0, 1
1056, 1061, '1', 0.02267, 0.12946, 0.01945, 150, 150, 150, 0, 0, 0, 0, 0, 1, 0, 1, 1, 0, 1, 0, 1, 0, 1
1056, 1065, '1', 0.02269, 0.12962, 0.01948, 250, 250, 250, 0, 0, 0, 0, 1, 1, 0, 1, 1, 0, 1, 0, 1, 0, 1
1069, 1058, '1', 0.0074, 0.05155, 0.00843, 221, 221, 221, 0, 0, 0, 0, 1, 1, 0, 1, 1, 0, 1, 0, 1, 0, 1
1069, 1058, '2', 0.0074, 0.05155, 0.00843, 221, 221, 221, 0, 0, 0, 0, 1, 1, 0, 1, 1, 0, 1, 0, 1, 0, 1
1058, 1087, '1', 0.01573, 0.10956, 0.01791, 221, 221, 221, 0, 0, 0, 0, 1, 1, 0, 1, 1, 0, 1, 0, 1, 0, 1
1058, 1087, '2', 0.01573, 0.10956, 0.01791, 221, 221, 221, 0, 0, 0, 0, 1, 1, 0, 1, 1, 0, 1, 0, 1, 0, 1
1061, 3042, '1', 0.054, 0.18, 0.028, 221, 221, 221, 0, 0, 0, 0, 1, 1, 0, 1, 1, 0, 1, 0, 1, 0, 1
1088, 1068, '1', 0.02962, 0.16921, 0.02543, 98, 98, 98, 0, 0, 0, 0, 1, 1, 0, 1, 1, 0, 1, 0, 1, 0, 1
1082, 1069, '1', 0.02137, 0.0952, 0.01396, 149, 149, 149, 0, 0, 0, 0, 1, 1, 0, 1, 1, 0, 1, 0, 1, 0, 1
3048, 1079, '1', 0.0013, 0.015, 1.02, 2300, 2300, 2300, 0, 0, 0, 0, 1, 1, 0, 1, 1, 0, 1, 0, 1, 0, 1
3048, 1079, '2', 0.0013, 0.015, 1.02, 2300, 2300, 2300, 0, 0, 0, 0, 1, 1, 0, 1, 1, 0, 1, 0, 1, 0, 1
1081, 3058, '1', 0.0091, 0.089, 0.171, 548, 548, 548, 0, 0, 0, 0, 1, 1, 0, 1, 1, 0, 1, 0, 1, 0, 1
1084, 3130, '1', 0.02049, 0.09131, 0.01339, 221, 221, 221, 0, 0, 0, 0, 1, 1, 0, 1, 1, 0, 1, 0, 1, 0, 1
1085, 1086, '1', 0.03392, 0.14838, 0.0226, 149, 149, 149, 0, 0, 0, 0, 1, 1, 0, 1, 1, 0, 1, 0, 1, 0, 1
1090, 1085, '1', 0.02018, 0.13786, 0.02346, 221, 221, 221, 0, 0, 0, 0, 1, 1, 0, 1, 1, 0, 1, 0, 1, 0, 1
2029, 1091, '1', 0.0389, 0.17144, 0.0798, 187, 187, 187, 0, 0, 0, 0, 1, 1, 0, 1, 1, 0, 1, 0, 1, 0, 1
1091, 2048, '1', 0.02193, 0.09667, 0.045, 187, 187, 187, 0, 0, 0, 0, 1, 1, 0, 1, 1, 0, 1, 0, 1, 0, 1
2098, 1091, '1', 0.00554, 0.02443, 0.01137, 187, 187, 187, 0, 0, 0, 0, 1, 1, 0, 1, 1, 0, 1, 0, 1, 0, 1
2022, 2001, '1', 0.00839, 0.03697, 0.01721, 187, 187, 187, 0, 0, 0, 0, 1, 1, 0, 1, 1, 0, 1, 0, 1, 0, 1
2027, 2001, '1', 0.00955, 0.04062, 0.02032, 187, 187, 187, 0, 0, 0, 0, 1, 1, 0, 1, 1, 0, 1, 0, 1, 0, 1
2021, 2002, '1', 0.00097, 0.01175, 0.78032, 2295, 2295, 2295, 0, 0, 0, 0, 1, 1, 0, 1, 1, 0, 1, 0, 1, 0, 1
2002, 2101, '1', 0.00031, 0.0037, 0.24573, 2020, 2020, 2020, 0, 0, 0, 0, 1, 1, 0, 1, 1, 0, 1, 0, 1, 0, 1
2038, 2003, '1', 0.00353, 0.02067, 0.01032, 251, 251, 251, 0, 0, 0, 0, 1, 1, 0, 1, 1, 0, 1, 0, 1, 0, 1
2003, 2047, '1', 0.0013, 0.0099, 0.0052, 310, 310, 310, 0, 0, 0, 0, 1, 1, 0, 1, 1, 0, 1, 0, 1, 0, 1
2007, 2114, '1', 0.00888, 0.05207, 0.026, 251, 251, 251, 0, 0, 0, 0, 1, 1, 0, 1, 1, 0, 1, 0, 1, 0, 1
2007, 2122, '1', 0.00861, 0.03661, 0.01831, 187, 187, 187, 0, 0, 0, 0, 1, 1, 0, 1, 1, 0, 1, 0, 1, 0, 1
2014, 2008, '1', 0.02253, 0.09931, 0.04623, 187, 187, 187, 0, 0, 0, 0, 1, 1, 0, 1, 1, 0, 1, 0, 1, 0, 1
2008, 2052, '1', 0.01877, 0.08271, 0.0385, 187, 187, 187, 0, 0, 0, 0, 1, 1, 0, 1, 1, 0, 1, 0, 1, 0, 1
2009, 2049, '1', 0.01224, 0.07176, 0.03583, 251, 251, 251, 0, 0, 0, 0, 1, 1, 0, 1, 1, 0, 1, 0, 1, 0, 1
2009, 2082, '1', 0.00735, 0.03126, 0.01563, 187, 187, 187, 0, 0, 0, 0, 1, 1, 0, 1, 1, 0, 1, 0, 1, 0, 1
2109, 2009, '1', 0.00725, 0.03084, 0.01542, 250, 250, 250, 0, 0, 0, 0, 1, 1, 0, 1, 1, 0, 1, 0, 1, 0, 1
2061, 2010, '1', 0.02439, 0.10748, 0.05003, 187, 187, 187, 0, 0, 0, 0, 1, 1, 0, 1, 1, 0, 1, 0, 1, 0, 1
2010, 2079, '1', 0.02061, 0.09083, 0.04228, 187, 187, 187, 0, 0, 0, 0, 1, 1, 0, 1, 1, 0, 1, 0, 1, 0, 1
2010, 2091, '1', 0.02461, 0.10467, 0.05235, 187, 187, 187, 0, 0, 0, 0, 1, 1, 0, 1, 1, 0, 1, 0, 1, 0, 1
2127, 2011, '1', 0.00108, 0.01307, 0.86827, 2020, 2020, 2020, 0, 0, 0, 0, 1, 1, 0, 1, 1, 0, 1, 0, 1, 0, 1
2012, 2041, '1', 0.01245, 0.05297, 0.02649, 187, 187, 187, 0, 0, 0, 0, 1, 1, 0, 1, 1, 0, 1, 0, 1, 0, 1
2012, 2052, '1', 0.02008, 0.08851, 0.0412, 187, 187, 187, 0, 0, 0, 0, 1, 1, 0, 1, 1, 0, 1, 0, 1, 0, 1
2093, 2012, '1', 0.01029, 0.04536, 0.02111, 187, 187, 187, 0, 0, 0, 0, 1, 1, 0, 1, 1, 0, 1, 0, 1, 0, 1
...